67
 F:4-33;23-4;
C     -4.999641     -1.278926     -0.600194
C     -4.152358     -0.513750     -1.601491
C     -2.754508     -1.120248     -1.672771
C     -2.143340     -1.297451     -0.308337
C     -2.865381     -1.348718      0.834254
C     -4.361614     -1.287708      0.765366
O     -5.017116     -1.280453      1.790639
C     -2.322235     -1.501382      2.217363
H     -2.655572     -0.664537      2.845674
H     -2.722146     -2.402696      2.702992
H     -1.225781     -1.520194      2.235495
H     -5.103706     -2.329591     -0.925145
H     -6.014945     -0.877868     -0.501975
H     -4.095241      0.543559     -1.296245
H     -4.615064     -0.529074     -2.596876
H     -2.091064     -0.514327     -2.310971
H     -2.830476     -2.102449     -2.174204
C      1.078925     -3.090355      1.154701
H      1.382886     -4.142123      1.029541
H      1.972353     -2.545040      1.484877
H      0.343629     -3.046743      1.964906
C      0.555242     -2.575166     -0.156202
C     -0.783025     -2.870034     -0.559298
C      1.557000     -2.610669     -1.294715
H      2.533915     -2.212816     -0.974076
H      1.202718     -2.003648     -2.147463
H      1.635985     -3.663307     -1.566349
C     -1.579453     -3.950728      0.109280
H     -2.600879     -4.008531     -0.283804
H     -1.628201     -3.854184      1.197900
H     -1.067521     -4.900057     -0.118132
H     -0.906423     -2.846198     -1.645723
Pd     -0.184762     -0.589965     -0.094071
C      1.732072      1.734670     -0.507479
C      2.854538      2.518609     -0.730043
C      4.103101      2.010054     -0.379499
C      4.162287      0.748856      0.190942
C      5.467562      0.168443      0.669427
C      2.982977      0.025652      0.373193
N      1.790591      0.490952      0.017684
H      5.010554      2.587520     -0.542101
H      2.744212      3.509073     -1.164451
H      3.015585     -0.966087      0.823306
C      0.377345      2.230479     -0.770821
O      0.249068      3.411850     -1.365194
N     -0.682411      1.601645     -0.412474
C     -1.177793      3.566575     -1.592573
H     -1.433362      4.605701     -1.370976
H     -1.357041      3.366350     -2.655698
C     -1.812948      2.525375     -0.659062
C     -2.254699      3.138731      0.589811
H     -2.619878      2.018767     -1.146003
F      6.423576      0.169638     -0.299700
F      5.315844     -1.130410      1.067220
F      5.977969      0.844810      1.734879
C     -3.446652      2.424512      1.251360
H     -3.711517      2.948240      2.177051
H     -4.324928      2.422726      0.594990
H     -3.199776      1.386354      1.503316
C     -1.074833      3.132680      1.589069
H     -0.209262      3.667383      1.183415
H     -1.375215      3.622524      2.524099
H     -0.767886      2.104787      1.815853
C     -2.667865      4.600904      0.303696
H     -2.969025      5.093101      1.237227
H     -1.838991      5.168629     -0.132591
H     -3.511382      4.632533     -0.396090
