67
 F:4-33;23-4;
C      4.931981     -1.357767     -0.601257
C      4.022248     -2.333772     -1.328920
C      2.630567     -1.720174     -1.469487
C      2.074874     -1.406158     -0.106029
C      2.862948     -0.980214      0.909814
C      4.310022     -0.735081      0.627040
O      4.956909     -0.007741      1.362397
C      2.413684     -0.609744      2.287315
H      2.746066      0.407941      2.532402
H      1.322898     -0.652927      2.394736
H      2.877791     -1.257810      3.044696
H      5.210829     -0.523846     -1.267550
H      5.882813     -1.811825     -0.292347
H      3.947398     -3.280669     -0.768889
H      4.433446     -2.581258     -2.315842
H      1.962267     -2.383885     -2.034485
H      2.692666     -0.794274     -2.062321
C     -1.586123     -2.712901      1.241948
H     -2.562148     -2.297059      0.963878
H     -1.246060     -2.206526      2.153524
H     -1.756924     -3.772583      1.488691
C     -0.592726     -2.620769      0.114305
C      0.780224     -2.943596      0.368608
C     -1.114892     -3.052803     -1.237900
H     -2.043477     -2.512834     -1.492883
H     -0.374934     -2.835386     -2.028343
H     -1.296192     -4.123984     -1.149742
C      1.219805     -3.473605      1.697284
H      0.747926     -4.461828      1.817086
H      2.305756     -3.607526      1.741082
H      0.909761     -2.862892      2.550257
H      1.263404     -3.447556     -0.472972
Pd      0.132537     -0.652026     -0.065063
C     -1.637196      1.747343      0.479210
C     -2.698842      2.585291      0.784984
C     -3.995618      2.128097      0.561143
C     -4.163780      0.857100      0.035122
C     -5.531881      0.278618     -0.216324
C     -3.039666      0.072609     -0.225887
N     -1.800387      0.493931     -0.000925
H     -4.855582      2.753865      0.789249
H     -2.507744      3.577589      1.185847
H     -3.157121     -0.932638     -0.631351
C     -0.241583      2.182004      0.609456
O      0.006295      3.326631      1.235463
N      0.742975      1.520945      0.119746
C      1.456591      3.387991      1.341100
H      1.755515      4.422018      1.152007
H      1.713492      3.117442      2.372890
C      1.945418      2.366727      0.303712
C      2.317304      3.020101     -0.947623
H      2.761290      1.791685      0.689171
F     -6.353458      0.398387      0.862491
F     -5.459978     -1.055086     -0.506733
F     -6.162532      0.872278     -1.266573
C      3.627755      2.497105     -1.562198
H      3.830478      3.039373     -2.492895
H      4.475564      2.650753     -0.884109
H      3.559891      1.428029     -1.796017
C      1.183094      2.803133     -1.975792
H      0.231005      3.197343     -1.604579
H      1.426614      3.317582     -2.914140
H      1.053596      1.734878     -2.186203
C      2.479414      4.535178     -0.685366
H      2.723276      5.052102     -1.622252
H      1.557286      4.968517     -0.283386
H      3.286277      4.716950      0.034461
