75
mapping.S.ts5 optimized geometry
C       3.131406       -1.072448        2.800225  
C       1.871475       -1.107573        3.390479  
C       0.794518       -1.743846        2.745032  
C       0.976272       -2.334910        1.468952  
C       2.249091       -2.294331        0.895577  
C       3.319684       -1.681700        1.556276  
H      -0.588570       -1.353512        4.375689  
H       3.959150       -0.579322        3.301711  
H       1.704704       -0.651596        4.363517  
C      -0.488798       -1.841354        3.407355  
C      -0.231583       -2.871058        0.709435  
H       2.421051       -2.737299       -0.078444  
H       4.299784       -1.673716        1.089604  
C      -1.400077       -3.272220        1.634438  
C      -1.522933       -2.559820        2.903329  
O      -2.249056       -4.095902        1.277935  
H      -3.027604       -0.902150       -0.545214  
C      -0.760200       -1.602927       -0.098963  
C      -1.990214       -1.850934       -0.949363  
H      -0.921263       -0.790869        0.617626  
H       0.072450       -1.304629       -0.735864  
H      -2.535806       -2.766960       -0.730586  
N      -1.874520       -1.737611       -2.350840  
O      -2.701485       -2.326433       -3.081421  
O      -0.995984       -0.974132       -2.876045  
C       0.105986       -3.996745       -0.278217  
H      -2.446522       -2.692743        3.459657  
H       0.774684       -3.630849       -1.062520  
H       0.588492       -4.832566        0.239043  
H      -0.809680       -4.360075       -0.748928  
C      -1.102061        1.622410       -0.609371  
N      -0.004637        1.176473       -1.325920  
N      -2.241972        1.461841       -1.335246  
H      -2.123605        1.127093       -2.282102  
H      -0.252670        0.451443       -2.013253  
C       1.354776        1.178145       -1.009216  
C       2.142050        0.186658       -1.625600  
C       1.980885        2.124871       -0.185530  
C       3.512483        0.130683       -1.396999  
H       1.667409       -0.538212       -2.278688  
C       3.357572        2.042447        0.037299  
H       1.402045        2.914633        0.270767  
C       4.139444        1.051823       -0.554121  
H       5.203526        0.994374       -0.365395  
C      -3.625325        1.834195       -1.003768  
C      -4.206825        1.035609        0.180720  
C      -3.774209        3.358730       -0.807837  
H      -4.195574        1.565929       -1.899003  
C      -5.643776        1.487397        0.496270  
C      -5.216597        3.758864       -0.480937  
H      -3.115922        3.671927        0.006793  
H      -3.427756        3.846808       -1.725573  
C      -5.710863        2.998544        0.755345  
H      -6.017715        0.930648        1.361420  
H      -6.295789        1.255830       -0.354920  
H      -5.264894        4.841443       -0.316035  
H      -5.874010        3.527680       -1.331551  
H      -6.742043        3.279150        0.998124  
H      -5.085019        3.255577        1.620587  
C       3.976160        3.044138        0.985348  
C       4.341332       -0.918090       -2.099618  
F       3.616861        2.791174        2.280617  
F       3.572456        4.319205        0.717054  
F       5.334699        3.042520        0.948998  
F       3.633018       -2.049021       -2.374204  
F       4.823214       -0.461186       -3.294359  
F       5.423583       -1.298856       -1.364629  
H      -3.572154        1.220402        1.049431  
N      -4.127634       -0.455294       -0.063129  
C      -5.112410       -0.976813       -1.051463  
C      -4.236825       -1.210523        1.211896  
H      -5.084149       -0.365624       -1.954503  
H      -4.814891       -1.996273       -1.304260  
H      -6.120446       -0.973882       -0.628348  
H      -3.477337       -0.839451        1.902876  
H      -5.232901       -1.089748        1.646839  
H      -4.053229       -2.266700        1.005218  
S      -1.044830        2.206704        0.976584  
