57
F:19-23;2-15 C:23 L:24-57; K:1,2
O   1.752566   -0.843250   -0.006013  
C   2.427089   -1.956945   -0.277760  
C   3.890202   -1.772586   -0.472810  
H   1.948073   -2.633082   -0.991185  
C   4.571758   -0.685543    0.097621  
C   4.593194   -2.715393   -1.238157  
C   5.942981   -0.540797   -0.109719  
H   4.021090    0.035084    0.693948  
C   5.965586   -2.566647   -1.443514  
H   4.060937   -3.556406   -1.676263  
C   6.642563   -1.479880   -0.878862  
H   6.469146    0.303304    0.327851  
H   6.505079   -3.293589   -2.044150  
H   7.711213   -1.363786   -1.037836  
C   2.428270   -3.204746    1.209143  
C   1.184537   -2.892950    1.697410  
H   2.558838   -4.149132    0.680985  
H   3.279591   -2.908541    1.822635  
C   0.129713   -2.210427    1.836888  
H  -0.687882   -2.241314    2.542435  
Cl   0.700043    0.719184    2.177973  
Cl  -0.695204   -2.048372   -1.149611  
Si   0.067119   -0.662014    0.478681  
O  -0.117441    0.690385   -0.762042  
O  -1.687656   -0.293907    1.089161  
C  -1.796125    2.179259   -0.162195  
C  -2.800672    1.123397   -0.388404  
C  -3.657196   -1.071956    0.083214  
C   0.495917    2.898110   -0.281251  
C   0.096454    4.225293    0.074641  
C  -2.202947    3.480608    0.182205  
C  -1.270403    4.487443    0.311776  
C  -3.908831    1.395263   -1.210358  
C  -4.884381    0.441712   -1.402425  
C  -4.785750   -0.809543   -0.757922  
H  -3.257088    3.658792    0.354946  
H  -1.580476    5.488600    0.593873  
H  -3.959543    2.361294   -1.697586  
H  -5.732620    0.646214   -2.047984  
C  -5.769203   -1.822498   -0.904062  
C  -3.532532   -2.300295    0.760493  
N  -0.486055    1.925485   -0.367742  
N  -2.697312   -0.079336    0.224230  
C   1.844575    2.585569   -0.541402  
C   1.098879    5.225030    0.171431  
C   2.416967    4.912941   -0.082440  
C   2.784903    3.591737   -0.440981  
H   2.121776    1.571941   -0.797850  
H   0.801588    6.232962    0.444499  
H   3.181472    5.680091   -0.009005  
H   3.827991    3.362093   -0.636224  
C  -5.636361   -3.021965   -0.239636  
C  -4.515736   -3.255563    0.595186  
H  -2.671111   -2.484390    1.385376  
H  -6.623268   -1.626793   -1.545093  
H  -6.391087   -3.793972   -0.352210  
H  -4.422538   -4.205610    1.112208  
