57
F:19-23;2-15 C:23 L:24-57; K:1,2
O   2.645080   -0.008363   -0.013753  
C   3.748795   -0.743244   -0.127178  
C   4.925607   -0.037697   -0.700919  
H   3.598931   -1.760210   -0.499963  
C   5.071383    1.354521   -0.594525  
C   5.910814   -0.796240   -1.351222  
C   6.190849    1.978373   -1.144042  
H   4.305964    1.933372   -0.087031  
C   7.028790   -0.167895   -1.901622  
H   5.792392   -1.874132   -1.432200  
C   7.171633    1.220074   -1.796756  
H   6.301270    3.056484   -1.065219  
H   7.784373   -0.757767   -2.412972  
H   8.042500    1.710248   -2.223489  
C   4.473691   -1.265476    1.598751  
C   3.274565   -1.393272    2.253126  
H   5.112400   -0.436164    1.904010  
H   5.012068   -2.170938    1.319571  
C   2.031760   -1.255575    2.437639  
H   1.370439   -1.439568    3.271960  
Cl   1.127831    1.564439    1.865898  
Cl   1.023550   -2.481169   -0.212205  
Si   1.129121   -0.434028    0.777847  
O   0.211217    0.206652   -0.705037  
O  -0.545212   -0.698585    1.656186  
C  -1.962915    0.801937   -0.110255  
C  -2.252646   -0.637049    0.071311  
C  -1.804870   -2.622123    1.330152  
C  -0.383016    2.445114   -0.843077  
C  -1.305765    3.446427   -0.723447  
C  -2.939170    1.810665    0.099245  
C  -2.603377    3.170396   -0.231541  
C  -3.273197   -1.305604   -0.653416  
C  -3.574403   -2.670929   -0.313393  
C  -2.820692   -3.293828    0.709146  
H  -3.024543   -4.320188    0.993374  
H  -1.158414   -3.030991    2.092901  
N  -0.733090    1.156759   -0.532576  
N  -1.541569   -1.318451    0.994120  
H   0.638505    2.567555   -1.172699  
H  -1.022707    4.460008   -0.985018  
C  -3.988253   -0.681354   -1.711064  
C  -4.600955   -3.350819   -1.013473  
C  -5.289994   -2.711879   -2.023049  
H  -6.074242   -3.235927   -2.560872  
C  -4.973848   -1.375996   -2.377518  
C  -4.221514    1.525996    0.640427  
C  -3.569678    4.188770   -0.044516  
C  -4.812423    3.878507    0.466967  
H  -5.550077    4.661678    0.613105  
C  -5.133492    2.543050    0.818879  
H  -3.309299    5.210996   -0.301803  
H  -6.108929    2.320227    1.239942  
H  -4.475515    0.511002    0.920787  
H  -3.751262    0.335895   -1.998423  
H  -5.512034   -0.896265   -3.189063  
H  -4.825133   -4.379401   -0.747297  
