57
F:19-23;2-15 C:23 L:24-57; K:1,2
O  -1.851786   -0.322186    0.172793  
C  -2.930929    0.257051    0.662624  
C  -3.953723    0.716780   -0.309420  
H  -2.740555    0.957658    1.483313  
C  -4.031447    0.171852   -1.600887  
C  -4.852137    1.722769    0.082980  
C  -5.000929    0.636251   -2.489384  
H  -3.332325   -0.605237   -1.891268  
C  -5.816957    2.186332   -0.810299  
H  -4.788681    2.140440    1.085272  
C  -5.894464    1.641104   -2.097706  
H  -5.060572    0.216430   -3.489787  
H  -6.506074    2.969368   -0.506708  
H  -6.647636    1.999709   -2.794051  
C  -4.069854   -0.916327    1.815647  
C  -3.067296   -1.775320    2.155592  
H  -4.863020   -1.302102    1.175379  
H  -4.382251   -0.154473    2.527304  
C  -1.959711   -2.381747    2.062427  
H  -1.545684   -3.215228    2.612128  
Cl   0.576435   -3.491706    0.800814  
Cl  -2.078760   -2.993159   -0.984639  
Si  -0.852406   -1.769905    0.440579  
O   0.123100   -1.084537   -0.995996  
O   0.318333   -0.817887    1.631223  
C   2.135804   -0.176871   -0.260199  
C   1.346006    0.877099    0.413259  
C  -0.187991    1.387385    2.175156  
C   2.091832   -2.085233   -1.705058  
C   3.457523   -2.133299   -1.748147  
C   3.552988   -0.217326   -0.217201  
C   4.232759   -1.218639   -0.996456  
C   1.486507    2.255847    0.110167  
C   0.767927    3.211253    0.910915  
C  -0.051224    2.730740    1.960921  
H  -0.590831    3.424631    2.596294  
H  -0.796850    0.935609    2.945452  
N   1.469479   -1.114365   -0.963134  
N   0.492247    0.494928    1.385300  
H   1.421815   -2.761030   -2.216366  
H   3.939744   -2.897063   -2.348271  
C   2.290616    2.718200   -0.965572  
C   0.898293    4.592227    0.627391  
C   1.695596    5.011890   -0.417390  
H   1.790993    6.071165   -0.635743  
C   2.386873    4.069319   -1.219356  
C   4.316469    0.675623    0.582484  
C   5.648027   -1.269134   -0.977202  
C   6.362483   -0.377609   -0.204576  
H   7.447235   -0.421539   -0.188151  
C   5.691576    0.591036    0.584042  
H   6.152723   -2.025145   -1.570883  
H   6.269375    1.270499    1.202837  
H   3.816960    1.412825    1.199759  
H   2.818077    2.006953   -1.589839  
H   2.996220    4.416439   -2.047981  
H   0.357588    5.306867    1.240410  
