57
F:19-23;2-15 C:23 L:24-57; K:1,2
O  -2.638545   -0.531406    0.040868  
C  -3.790710   -0.119118   -0.477861  
C  -4.890856    0.094894    0.501722  
H  -4.090465   -0.618061   -1.403564  
C  -4.631079    0.331968    1.860414  
C  -6.215302    0.064304    0.038674  
C  -5.690882    0.528035    2.745757  
H  -3.604695    0.345401    2.213342  
C  -7.272814    0.259951    0.927554  
H  -6.412304   -0.122252   -1.014402  
C  -7.012270    0.494667    2.282405  
H  -5.488891    0.702518    3.799086  
H  -8.296833    0.225302    0.566318  
H  -7.835210    0.646326    2.975600  
C  -3.658571    1.659180   -1.231667  
C  -2.361985    1.553825   -1.668241  
H  -3.850423    2.350523   -0.410331  
H  -4.454899    1.612611   -1.974302  
C  -1.218395    1.032323   -1.781270  
H  -0.311867    1.335093   -2.283754  
Cl  -0.841567   -2.733554    0.317827  
Cl  -1.945250   -1.822435   -2.599111  
Si  -1.108246   -0.832114   -0.781160  
O   0.613307   -0.889009   -1.608722  
O  -0.230118   -0.006707    0.716777  
C   2.299765   -0.560709   -0.034197  
C   1.839469    0.839773    0.076790  
C   0.056030    2.298654    0.726866  
C   2.051903   -2.654497   -1.168201  
C   3.132236   -3.180804   -0.516788  
C   3.390038   -1.073713    0.714994  
C   3.826033   -2.420549    0.454445  
C   2.675588    1.953518   -0.196553  
C   2.160684    3.274432    0.051529  
C   0.835600    3.404637    0.532808  
H   0.419243    4.385679    0.734104  
H  -0.969538    2.304828    1.066369  
N   1.663062   -1.364498   -0.910693  
N   0.571122    1.048026    0.489405  
H   1.446203   -3.170949   -1.898511  
H   3.437187   -4.197868   -0.737909  
C   3.986486    1.808667   -0.725323  
C   2.983557    4.398636   -0.201319  
C   4.259179    4.225289   -0.697028  
H   4.887408    5.089043   -0.892304  
C   4.756135    2.925593   -0.968031  
C   4.045357   -0.316260    1.722938  
C   4.921055   -2.947877    1.181015  
C   5.549442   -2.181381    2.140144  
H   6.386546   -2.589559    2.698273  
C   5.101989   -0.864677    2.416401  
H   5.245629   -3.963139    0.974639  
H   5.594701   -0.283426    3.189559  
H   3.707040    0.687560    1.949972  
H   4.375264    0.821069   -0.942879  
H   5.754947    2.809347   -1.376949  
H   2.589769    5.391070   -0.004535  
