83
 F:28-12;
C     -4.401488      0.485737      1.242698
C     -3.099118      0.971412      1.124639
C     -2.620546      1.413853     -0.113938
C     -3.463115      1.370112     -1.226462
C     -4.764526      0.869798     -1.104002
C     -5.250290      0.422974      0.129603
H     -2.463155      0.982685      2.007574
H     -3.125245      1.725784     -2.195767
H     -6.254794      0.030986      0.222159
H     -4.692062      0.156000      2.229227
H     -5.347800      0.857741     -2.012873
C     -1.241661      1.985143     -0.244115
H     -1.034311      2.176614     -1.307764
C     -2.305154      4.204615      0.489545
H     -2.611482      4.413114     -0.541670
H     -3.140322      3.714843      0.991071
H     -2.112193      5.153523      0.997867
N      0.028771      4.110370     -0.054853
H     -0.206489      5.002568     -0.467709
C     -1.064991      3.320740      0.520671
C      1.317962      3.778777      0.032140
O      1.687076      2.681978      0.523759
C      2.340368      4.750413     -0.459741
H      2.943788      4.275266     -1.236709
H      1.904892      5.669436     -0.852954
H      3.015492      5.000722      0.361884
H     -0.798234      3.115122      1.567400
H     -0.671301      0.794070      0.836804
Rh      0.643543      0.801384      0.005558
P      2.556901     -0.278692      0.759497
C      2.607468     -2.082377      0.256197
O      3.606932     -2.212963     -0.771108
H      2.901107     -2.719665      1.102125
P      0.062752     -1.212470     -0.785131
C      1.276399     -2.574965     -0.275151
O      0.629105     -3.333708      0.758576
H      1.456593     -3.241878     -1.130333
C     -0.015741     -1.330214     -2.660963
C      2.816865     -0.273000      2.619686
C     -0.427192     -2.732260     -3.105069
C     -1.040583     -0.315132     -3.162155
C      1.377013     -0.977926     -3.188606
C      4.157611     -0.908543      2.978434
C      2.769566      1.175590      3.104265
C      1.659339     -1.066138      3.231202
C     -1.272834     -2.187734     -0.074576
C     -0.731660     -3.215461      0.709607
C     -1.541822     -4.086228      1.431970
H     -1.096730     -4.872772      2.032477
C     -2.659468     -2.040346     -0.150933
C     -3.482228     -2.918037      0.548737
H     -4.561037     -2.816106      0.476877
C     -2.922045     -3.924159      1.341354
H     -3.570355     -4.599609      1.892101
H     -3.096070     -1.251397     -0.759019
C      4.124569     -0.005769     -0.075974
C      4.449332     -1.137345     -0.835173
C      5.571663     -1.163551     -1.657097
C      4.927633      1.134036     -0.156192
C      6.061376      1.117595     -0.965313
H      6.700317      1.993119     -1.020895
C      6.373585     -0.025084     -1.708486
H      5.806515     -2.052298     -2.233598
H      7.256228     -0.030699     -2.341077
H      4.665668      2.023766      0.410840
H      1.673052     -2.120091      2.933188
H      1.736120     -1.030458      4.323171
H      0.686665     -0.648061      2.945972
H      1.812554      1.648733      2.863765
H      2.901221      1.193618      4.191811
H      3.565382      1.784640      2.662761
H      5.000123     -0.345616      2.565123
H      4.264951     -0.921687      4.068987
H      4.240162     -1.944885      2.633919
H      2.136231     -1.704811     -2.877836
H      1.360217     -0.967863     -4.283831
H      1.696330      0.015590     -2.850519
H     -0.759206      0.708302     -2.894172
H     -1.102338     -0.370848     -4.254463
H     -2.042053     -0.509732     -2.763314
H     -1.426010     -2.998058     -2.746070
H     -0.446445     -2.760781     -4.200239
H      0.270870     -3.507658     -2.775990
