61
 F:8-36;7-8;7-22;
C      1.987378     -1.489822     -0.342763
H      3.387278     -2.921952      2.279317
C      3.242998     -1.847902     -0.857603
C      3.526568     -1.576652     -2.197983
C      2.545748     -0.983192     -2.988323
C      1.297468     -0.665632     -2.453063
H     -0.162302     -1.410632     -0.969013
C      0.965448     -0.895982     -1.101943
C      3.192558     -2.523302      1.293897
C      3.983718     -2.490022      0.201587
H      4.489498     -1.849832     -2.622803
H      2.745818     -0.794852     -4.039983
H      0.527128     -0.259202     -3.107783
H      4.988118     -2.887852      0.137727
N      1.956678     -1.899012      1.003027
C      0.944588     -1.669662      1.897687
O      0.005588     -0.901352      1.652027
C      1.010948     -2.357562      3.221297
H      1.209208     -3.427732      3.110757
H      1.810538     -1.924792      3.835007
H      0.060158     -2.210792      3.734797
O     -1.341172     -2.173292     -0.891543
O     -2.043972     -0.185332     -0.160833
C     -2.250022     -1.397842     -0.519653
C     -3.681642     -1.924787     -0.442181
C     -4.589224     -1.637147     -1.467014
C     -4.085101     -2.694988      0.653600
C     -6.303722     -2.889910     -0.300287
C     -5.396141     -3.177550      0.724547
C     -5.900264     -2.119709     -1.396067
H     -4.275618     -1.038473     -2.318758
H     -6.605721     -1.896127     -2.192665
H     -7.322786     -3.265003     -0.245140
H     -5.709746     -3.776224      1.576291
H     -3.379643     -2.918569      1.450197
Ir     -0.139292      0.664048      0.059887
C      1.385038      2.215768     -0.166293
C     -0.502162      2.475238      1.207147
C     -0.915452      2.682948     -0.154003
C      0.231878      2.484128     -1.013743
C      0.926338      2.188868      1.188067
C     -2.296372      2.975518     -0.615433
C     -1.364852      2.542698      2.416787
C      1.757648      1.892018      2.384337
C      2.789868      2.055968     -0.626983
C      0.261488      2.697508     -2.485373
H     -0.664992      2.357258     -2.959083
H      1.095028      2.164808     -2.952783
H      0.378678      3.765298     -2.709533
H     -3.044892      2.542078      0.053987
H     -2.475622      2.568528     -1.615153
H     -2.458142      4.059598     -0.656363
H     -1.036222      1.828738      3.179417
H     -2.404442      2.302478      2.173477
H     -1.343212      3.544708      2.862787
H      2.624538      1.274398      2.123517
H      1.179328      1.366458      3.151397
H      2.132438      2.821138      2.831137
H      3.379398      1.458488      0.075967
H      3.272888      3.036788     -0.717113
H      2.843168      1.565858     -1.604193
