75
L:28-75 K:4,5;39
C       4.534367       -1.807136       -1.471830  
C       3.596365       -0.883718       -1.918205  
C       2.216517       -1.141202       -1.793045  
C       1.768395       -2.356499       -1.218728  
C       2.729751       -3.276319       -0.784866  
C       4.095910       -3.007578       -0.900814  
H       1.648626        0.753777       -2.686141  
H       5.596362       -1.596612       -1.559793  
H       3.914621        0.054171       -2.364732  
C       1.259114       -0.159706       -2.243736  
C       0.284654       -2.651404       -1.050952  
H       2.413859       -4.216567       -0.343638  
H       4.818102       -3.736602       -0.543347  
C      -0.640078       -1.550839       -1.584581  
C      -0.083140       -0.333671       -2.125496  
O      -1.872976       -1.732247       -1.545903  
H      -3.304593       -0.753481       -1.000070  
C       0.006952       -2.815752        0.524515  
C      -1.405301       -3.045619        0.900940  
H       0.398939       -1.940423        1.040051  
H       0.626673       -3.672319        0.817882  
H      -1.965063       -3.886653        0.516336  
N      -2.124175       -2.197649        1.627438  
O      -3.382779       -2.377004        1.828851  
O      -1.569492       -1.129360        2.189475  
H       0.025800       -3.584066       -1.543719  
H      -0.781753        0.429503       -2.454703  
C      -1.411065        1.573750        0.270707  
N      -0.320168        0.912564        0.793617  
N      -2.560718        0.920716        0.587787  
H      -2.467294        0.162761        1.286371  
H      -0.582130        0.061856        1.326835  
C       1.051084        1.139558        0.745460  
C       1.704936        2.072537       -0.072992  
C       1.834727        0.300363        1.565845  
C       3.101012        2.141190       -0.066013  
H       1.124024        2.721599       -0.713173  
C       3.221148        0.371088        1.538026  
H       1.342360       -0.413372        2.218056  
C       3.878412        1.298343        0.723572  
H       4.958802        1.348548        0.700031  
C      -3.912072        1.408531        0.373673  
C      -4.833245        0.211009        0.085867  
C      -4.422221        2.170641        1.614303  
H      -3.901295        2.094206       -0.477561  
C      -6.288712        0.649243       -0.091197  
C      -5.883303        2.606650        1.453530  
H      -4.324653        1.511786        2.487408  
H      -3.763157        3.031091        1.768900  
C      -6.776041        1.392962        1.164079  
H      -6.923264       -0.221223       -0.283559  
H      -6.367452        1.322069       -0.953258  
H      -6.218878        3.120673        2.361312  
H      -5.962349        3.322303        0.623286  
H      -7.816716        1.701654        1.016686  
H      -6.753251        0.708147        2.022513  
C       4.020806       -0.538542        2.441414  
C       3.745783        3.146261       -0.991425  
F       3.421460       -1.747525        2.623206  
F       4.179515        0.007305        3.686749  
F       5.270385       -0.781523        1.962501  
F       3.395044        2.921420       -2.297205  
F       3.355443        4.422077       -0.707285  
F       5.102574        3.125531       -0.943450  
H      -4.745846       -0.497324        0.917118  
N      -4.323953       -0.584381       -1.117220  
C      -4.449008        0.118123       -2.434299  
C      -4.931107       -1.956113       -1.174820  
H      -3.914504       -0.483684       -3.170338  
H      -5.503649        0.199255       -2.696464  
H      -3.990449        1.104041       -2.356744  
H      -5.999734       -1.863584       -1.370029  
H      -4.438176       -2.497351       -1.982714  
H      -4.733950       -2.440205       -0.216077  
S      -1.378686        2.996219       -0.653432  
