83
F:12-28;
 C                 -4.37888600    0.25777900    1.22835100
 C                 -3.08386200    0.75981000    1.12822200
 C                 -2.65665900    1.36948600   -0.06464100
 C                 -3.53910500    1.45780100   -1.13896000
 C                 -4.84342400    0.94834600   -1.02779600
 C                 -5.27530500    0.35384200    0.15470100
 H                 -2.37789100    0.62383800    1.94122200
 H                 -3.23451900    1.91977000   -2.07459800
 H                 -6.26706500   -0.06820000    0.26675000
 H                 -4.69452963   -0.20826727    2.13833450
 H                 -5.51185211    1.01789756   -1.86042223
 C                 -1.28438400    1.96228600   -0.18804400
 H                 -1.08763500    2.16446600   -1.25191300
 C                 -0.97723600    3.19034500    2.07350500
 H                 -0.89121900    4.18116200    2.52676400
 H                 -1.83875700    2.69053500    2.52269400
 H                 -0.08018500    2.61246600    2.32048400
 N                 -0.10916900    4.14890900   -0.02339300
 H                 -0.37889700    5.07823000   -0.31106400
 C                 -1.15707800    3.30114100    0.56535500
 C                  1.19254800    3.85115500   -0.06292500
 O                  1.64773300    2.73165600    0.28301100
 C                  2.14116400    4.90639800   -0.53413700
 H                  2.72427100    4.52003000   -1.37288100
 H                  1.64293900    5.82834600   -0.83548100
 H                  2.84527700    5.13269100    0.27012600
 H                 -2.08284400    3.85945500    0.37349000
 H                 -0.61947200    0.83991300    0.90327100
 Rh                 0.61855000    0.80589800   -0.03990100
 P                  2.54010000   -0.26482500    0.68999300
 C                  2.54483300   -2.09590500    0.29195700
 O                  3.55562000   -2.31911000   -0.70717100
 H                  2.80683400   -2.68790600    1.17963300
 P                  0.01335900   -1.22063500   -0.77292900
 C                  1.20616500   -2.58364100   -0.22470400
 O                  0.54213300   -3.29371000    0.83429600
 H                  1.37314300   -3.28277800   -1.05658700
 C                 -0.04359600   -1.33173600   -2.65032200
 C                  2.81484700   -0.16612700    2.54641200
 C                 -0.46859900   -2.72664300   -3.10415100
 C                 -1.04882900   -0.29789100   -3.15756300
 C                  1.35866900   -1.00019600   -3.16689100
 C                  4.11578200   -0.86077500    2.94032700
 C                  2.86451800    1.30938600    2.94033900
 C                  1.61139400   -0.84065400    3.21031000
 C                 -1.34164900   -2.18932000   -0.08971200
 C                 -0.81846000   -3.19332200    0.73687400
 C                 -1.64508700   -4.06211800    1.44257900
 H                 -1.21484700   -4.83067500    2.07628200
 C                 -2.72562800   -2.06979200   -0.23321000
 C                 -3.56429000   -2.94839100    0.44655700
 H                 -4.64077900   -2.86214600    0.33240800
 C                 -3.02270800   -3.92650300    1.28585000
 H                 -3.68406800   -4.60180300    1.82129100
 H                 -3.14831000   -1.29716800   -0.87287300
 C                  4.11599400   -0.08139100   -0.15390000
 C                  4.42237900   -1.26738400   -0.83338300
 C                  5.55051200   -1.37090700   -1.64123400
 C                  4.94067400    1.03566300   -0.30563100
 C                  6.08032400    0.94236900   -1.10079100
 H                  6.73579700    1.80031200   -1.21224700
 C                  6.37553100   -0.25423900   -1.76120900
 H                  5.77163600   -2.30070300   -2.15531800
 H                  7.26253300   -0.31901100   -2.38444900
 H                  4.68791300    1.96895600    0.19271200
 H                  1.51864200   -1.89729900    2.93453700
 H                  1.72458900   -0.79060300    4.29861400
 H                  0.67330000   -0.33839600    2.94252200
 H                  1.94565300    1.83023500    2.65359100
 H                  2.98201300    1.38949700    4.02667100
 H                  3.70652400    1.83344200    2.47576600
 H                  4.98693000   -0.38402800    2.48025800
 H                  4.23642300   -0.80129500    4.02782500
 H                  4.12866600   -1.92247900    2.67294700
 H                  2.10885600   -1.72267900   -2.82511700
 H                  1.35714000   -1.02285600   -4.26209600
 H                  1.67982300    0.00147300   -2.85686200
 H                 -0.75185000    0.72054200   -2.88648900
 H                 -1.10261500   -0.35113400   -4.25044900
 H                 -2.05758700   -0.47450200   -2.76809300
 H                 -1.47623500   -2.98012100   -2.76185500
 H                 -0.47101600   -2.75140800   -4.19957300
 H                  0.21416000   -3.51207200   -2.76646300
