83
F:28-20;
 C                  3.87596600   -0.09665900    1.79849100
 C                  2.73815900   -0.88568100    1.61885400
 C                  2.75466100   -1.91138900    0.65887400
 C                  3.89248300   -2.11984300   -0.11256200
 C                  5.01062500   -1.28702200    0.04314100
 C                  5.01320400   -0.27610000    1.00011600
 H                  1.84539800   -0.73694000    2.22190100
 H                  3.94713200   -2.93119700   -0.83173700
 H                  5.86719700    0.36986000    1.16560700
 H                  3.95450896    0.69776674    2.52589649
 H                  5.84496236   -1.49993772   -0.60873940
 C                  1.57695600   -2.84038200    0.55951500
 H                  1.95085600   -3.87621400    0.61387700
 C                  1.44536000   -3.10509700   -1.97494400
 H                  0.77069800   -3.23049600   -2.82635700
 H                  2.15742600   -2.31628700   -2.21906500
 H                  2.02104800   -4.03541900   -1.86273300
 N                 -0.30911900   -3.87930200   -0.52785200
 H                 -0.09211100   -4.79541800   -0.90370900
 C                  0.68214900   -2.80478200   -0.70374500
 C                 -1.33349000   -3.75427300    0.31500700
 O                 -1.60632000   -2.62459700    0.80420200
 C                 -2.16054000   -4.94360900    0.66339300
 H                 -3.21197200   -4.72239400    0.46795600
 H                 -1.87106300   -5.83707300    0.11051200
 H                 -2.06487300   -5.14487000    1.73311700
 H                  0.94280600   -2.71199000    1.44641300
 H                 -0.39899800   -1.69668400   -1.52834600
 Rh                -0.51870900   -0.97596300   -0.13927500
 P                 -2.24444600    0.36259900    0.60122800
 C                 -2.48120400    1.87788100   -0.45884700
 O                 -3.77619800    1.79902600   -1.07935600
 H                 -2.47714000    2.78041100    0.16711600
 P                  0.10805200    0.93716100   -1.18995700
 C                 -1.38984100    2.04808000   -1.51938100
 O                 -0.92275800    3.40801100   -1.48210200
 H                 -1.81360900    1.87705600   -2.51371600
 C                  1.06984500    0.89527000   -2.81065200
 C                 -2.28054600    0.94093100    2.38580200
 C                  1.09793900    2.26519300   -3.48963400
 C                  2.49564400    0.47952000   -2.43939000
 C                  0.42256100   -0.11424600   -3.75537500
 C                 -3.54251500    1.74787000    2.67616300
 C                 -2.23238000   -0.31491300    3.25750100
 C                 -1.02448900    1.78276600    2.61378300
 C                  0.84689000    2.34915800   -0.32247000
 C                  0.15159300    3.52260900   -0.64415100
 C                  0.55505300    4.76474900   -0.16455700
 H                 -0.00210800    5.65760300   -0.42867200
 C                  1.97774000    2.42681400    0.48671600
 C                  2.39055100    3.65999300    0.98578900
 H                  3.26643900    3.71620200    1.62510900
 C                  1.67823400    4.81740800    0.65876800
 H                  2.00107000    5.77762400    1.05056300
 H                  2.53047500    1.52212600    0.71564500
 C                 -3.88689700   -0.21838600    0.16920500
 C                 -4.48388500    0.69331400   -0.71212100
 C                 -5.76884100    0.48937700   -1.20786800
 C                 -4.58720700   -1.36591200    0.55473000
 C                 -5.87396100   -1.57796600    0.06891400
 H                 -6.42727500   -2.46180800    0.36995100
 C                 -6.45336900   -0.65419800   -0.80772100
 H                 -6.21066700    1.21148900   -1.88636500
 H                 -7.45683100   -0.82736800   -1.18553800
 H                 -4.12262500   -2.08192700    1.22587400
 H                 -0.11334800    1.22191100    2.36798700
 H                 -1.01834800    2.70202600    2.01571500
 H                 -0.96535700    2.07687200    3.66749000
 H                 -1.33529400   -0.91220200    3.05887300
 H                 -2.21982500   -0.02389000    4.31329100
 H                 -3.10565400   -0.95661900    3.10014100
 H                 -4.44857800    1.15237600    2.52667900
 H                 -3.52818500    2.07801100    3.72084800
 H                 -3.61675600    2.64596300    2.05360900
 H                 -0.61156200    0.15513600   -3.99634100
 H                  0.98435600   -0.13889700   -4.69551800
 H                  0.42020800   -1.12776200   -3.34793400
 H                  3.06294300    0.25023200   -3.34834700
 H                  3.02200800    1.28249500   -1.91242500
 H                  2.51864800   -0.40553900   -1.79450200
 H                  1.52199100    3.04149500   -2.84616900
 H                  1.73226000    2.19447600   -4.38031700
 H                  0.10694200    2.58971200   -3.81931400
