75
L:28-75 K:4,5
C      -3.698953        2.107729       -0.658266  
C      -3.185354        1.743018        0.581477  
C      -1.907853        2.175050        0.986479  
C      -1.144722        3.014972        0.142417  
C      -1.676726        3.372902       -1.099943  
C      -2.935958        2.918602       -1.504969  
H      -1.987535        1.092392        2.868541  
H      -4.679427        1.759258       -0.967610  
H      -3.759600        1.105687        1.246376  
C      -1.364148        1.739201        2.255908  
C       0.189806        3.582779        0.614687  
H      -1.112319        4.019726       -1.764649  
H      -3.321874        3.204516       -2.479700  
C       0.751548        2.934954        1.906967  
C      -0.124718        2.076989        2.691811  
O       1.896843        3.207370        2.276164  
H       2.065088        1.504471       -0.312048  
C       1.274684        3.556730       -0.490008  
C       1.523449        2.152301       -1.016763  
H       2.193278        3.974018       -0.073668  
H       0.960990        4.204412       -1.311965  
H       0.599476        1.646993       -1.307500  
N       2.380518        2.147934       -2.275130  
O       2.442433        1.077497       -2.896414  
O       2.964653        3.164774       -2.613097  
H       0.017584        4.620938        0.883475  
H       0.264298        1.703750        3.635035  
C       1.280402       -1.784156       -0.547249  
N       0.112228       -1.163981       -1.006324  
N       2.365496       -1.327127       -1.202372  
H       2.225208       -0.523963       -1.809235  
H       0.181521       -0.758309       -1.931576  
C      -1.210164       -1.334663       -0.575991  
C      -2.226249       -1.260452       -1.538797  
C      -1.556386       -1.500691        0.774616  
C      -3.563596       -1.378423       -1.160705  
H      -1.967407       -1.102548       -2.580953  
C      -2.895778       -1.655788        1.125768  
H      -0.787425       -1.495785        1.531746  
C      -3.912895       -1.608941        0.169058  
H      -4.951177       -1.714623        0.459225  
C       3.791042       -1.619230       -0.969779  
C       4.261948       -1.227852        0.450702  
C       4.165477       -3.070455       -1.325261  
H       4.306890       -0.966480       -1.683536  
C       5.776545       -1.495724        0.583158  
C       5.672745       -3.310241       -1.156086  
H       3.611493       -3.748086       -0.669207  
H       3.851262       -3.268831       -2.356703  
C       6.120274       -2.957629        0.269045  
H       6.098939       -1.230310        1.596637  
H       6.323850       -0.847698       -0.114389  
H       5.905710       -4.356268       -1.389084  
H       6.228636       -2.684646       -1.870067  
H       7.198452       -3.124204        0.384882  
H       5.607205       -3.616207        0.984066  
C      -3.273352       -1.897992        2.568774  
C      -4.644469       -1.310904       -2.214011  
F      -4.397629       -1.209373        2.924547  
F      -2.296091       -1.532705        3.441135  
F      -3.538265       -3.216845        2.802550  
F      -4.285570       -0.543953       -3.280157  
F      -4.945826       -2.549634       -2.706791  
F      -5.806982       -0.793292       -1.727580  
H       3.740263       -1.890743        1.146482  
N       3.842529        0.146191        0.804715  
C       4.648938        1.198749        0.181908  
C       3.801246        0.331480        2.257655  
H       4.173140        2.167315        0.372570  
H       5.680033        1.245941        0.576463  
H       4.707340        1.042380       -0.900303  
H       4.801029        0.251191        2.727189  
H       3.394393        1.321413        2.482963  
H       3.147574       -0.428503        2.700688  
S       1.279384       -2.986125        0.641149  
