83
F:28-12;
 C                 -4.40148800    0.48573700    1.24269800
 C                 -3.09911800    0.97141200    1.12463900
 C                 -2.62054600    1.41385300   -0.11393800
 C                 -3.46311500    1.37011200   -1.22646200
 C                 -4.76452600    0.86979800   -1.10400200
 C                 -5.25029000    0.42297400    0.12960300
 H                 -2.46315500    0.98268500    2.00757400
 H                 -3.12524500    1.72578400   -2.19576700
 H                 -6.25479400    0.03098600    0.22215900
 H                 -4.69206155    0.15599959    2.22922740
 H                 -5.34779988    0.85774062   -2.01287284
 C                 -1.24166100    1.98514300   -0.24411500
 H                 -1.03431100    2.17661400   -1.30776400
 C                 -2.30515400    4.20461500    0.48954500
 H                 -2.61148200    4.41311400   -0.54167000
 H                 -3.14032200    3.71484300    0.99107100
 H                 -2.11219300    5.15352300    0.99786700
 N                  0.02877100    4.11037000   -0.05485300
 H                 -0.20648900    5.00256800   -0.46770900
 C                 -1.06499100    3.32074000    0.52067100
 C                  1.31796200    3.77877700    0.03214000
 O                  1.68707600    2.68197800    0.52375900
 C                  2.34036800    4.75041300   -0.45974100
 H                  2.94378800    4.27526600   -1.23670900
 H                  1.90489200    5.66943600   -0.85295400
 H                  3.01549200    5.00072200    0.36188400
 H                 -0.79823400    3.11512200    1.56740000
 H                 -0.67130100    0.79407000    0.83680400
 Rh                 0.64354300    0.80138400    0.00555800
 P                  2.55690100   -0.27869200    0.75949700
 C                  2.60746800   -2.08237700    0.25619700
 O                  3.60693200   -2.21296300   -0.77110800
 H                  2.90110700   -2.71966500    1.10212500
 P                  0.06275200   -1.21247000   -0.78513100
 C                  1.27639900   -2.57496500   -0.27515100
 O                  0.62910500   -3.33370800    0.75857600
 H                  1.45659300   -3.24187800   -1.13033300
 C                 -0.01574100   -1.33021400   -2.66096300
 C                  2.81686500   -0.27300000    2.61968600
 C                 -0.42719200   -2.73226000   -3.10506900
 C                 -1.04058300   -0.31513200   -3.16215500
 C                  1.37701300   -0.97792600   -3.18860600
 C                  4.15761100   -0.90854300    2.97843400
 C                  2.76956600    1.17559000    3.10426500
 C                  1.65933900   -1.06613800    3.23120200
 C                 -1.27283400   -2.18773400   -0.07457600
 C                 -0.73166000   -3.21546100    0.70960700
 C                 -1.54182200   -4.08622800    1.43197000
 H                 -1.09673000   -4.87277200    2.03247700
 C                 -2.65946800   -2.04034600   -0.15093300
 C                 -3.48222800   -2.91803700    0.54873700
 H                 -4.56103700   -2.81610600    0.47687700
 C                 -2.92204500   -3.92415900    1.34135400
 H                 -3.57035500   -4.59960900    1.89210100
 H                 -3.09607000   -1.25139700   -0.75901900
 C                  4.12456900   -0.00576900   -0.07597400
 C                  4.44933200   -1.13734500   -0.83517300
 C                  5.57166300   -1.16355100   -1.65709700
 C                  4.92763300    1.13403600   -0.15619200
 C                  6.06137600    1.11759500   -0.96531300
 H                  6.70031700    1.99311900   -1.02089500
 C                  6.37358500   -0.02508400   -1.70848600
 H                  5.80651500   -2.05229800   -2.23359800
 H                  7.25622800   -0.03069900   -2.34107700
 H                  4.66566800    2.02376600    0.41084000
 H                  1.67305200   -2.12009100    2.93318800
 H                  1.73612000   -1.03045800    4.32317100
 H                  0.68666500   -0.64806100    2.94597200
 H                  1.81255400    1.64873300    2.86376500
 H                  2.90122100    1.19361800    4.19181100
 H                  3.56538200    1.78464000    2.66276100
 H                  5.00012300   -0.34561600    2.56512300
 H                  4.26495100   -0.92168700    4.06898700
 H                  4.24016200   -1.94488500    2.63391900
 H                  2.13623100   -1.70481100   -2.87783600
 H                  1.36021700   -0.96786300   -4.28383100
 H                  1.69633000    0.01559000   -2.85051900
 H                 -0.75920600    0.70830200   -2.89417200
 H                 -1.10233800   -0.37084800   -4.25446300
 H                 -2.04205300   -0.50973200   -2.76331400
 H                 -1.42601000   -2.99805800   -2.74607000
 H                 -0.44644500   -2.76078100   -4.20023900
 H                  0.27087000   -3.50765800   -2.77599000
