83
F:28-20;
 C                 -4.99157900    0.06768600    0.12206000
 C                 -4.26759300   -0.58504200    1.12167300
 C                 -3.14943600    0.05110000    1.68114700
 C                 -2.78930600    1.32824200    1.26120900
 C                 -3.53427700    1.97955700    0.26734800
 C                 -4.63618300    1.35428000   -0.30888600
 H                 -4.53567200   -1.58309800    1.45261000
 H                 -1.92768100    1.83334900    1.69097800
 H                 -5.22489900    1.81823400   -1.09196400
 H                 -5.83709891   -0.36726822   -0.39010298
 H                 -3.18272505    2.96359912   -0.00554818
 C                 -2.27274500   -0.65362300    2.67527300
 H                 -2.87306000   -1.32310700    3.30959500
 C                 -1.62612000   -2.73966600    1.35276400
 H                 -0.79281800   -3.36274200    1.01887500
 H                 -2.25702400   -3.34558300    2.02057500
 H                 -2.23777000   -2.47629500    0.48657700
 N                 -0.33079900   -1.95856100    3.23677900
 H                 -0.79758000   -2.61003400    3.86118000
 C                 -1.12616800   -1.50394600    2.06460800
 C                  0.72982100   -1.30809000    3.71176700
 O                  1.28940000   -0.41006400    3.02601700
 C                  1.26919400   -1.66439900    5.05483800
 H                  2.32705700   -1.91904200    4.96301300
 H                  1.20426400   -0.78978200    5.70628300
 H                  0.73708300   -2.49331700    5.52123800
 H                 -1.81220200    0.08730200    3.33867300
 H                 -0.95993000   -0.31858800    0.93155400
 Rh                 0.60079400   -0.49017700    0.95667200
 P                  2.22843000    1.00481600    0.24680300
 C                  2.71622600    0.77071400   -1.55001200
 O                  2.38895400    1.96944000   -2.27499200
 H                  3.79318500    0.60244600   -1.65635900
 P                  0.42397900   -0.95342700   -1.24342800
 C                  1.99193600   -0.41356900   -2.15714400
 O                  2.88300800   -1.54054700   -2.08935100
 H                  1.76925700   -0.20725000   -3.21298200
 C                 -1.00018100   -0.43915600   -2.36005400
 C                  3.81786100    1.31139400    1.19756900
 C                 -0.79385900   -0.95065700   -3.78549300
 C                 -2.29179800   -1.01771000   -1.79128500
 C                 -1.07327100    1.08746200   -2.33886700
 C                  4.75526800    2.22408500    0.40875800
 C                  3.45219900    1.98308900    2.52254700
 C                  4.45634300   -0.05627500    1.44235400
 C                  0.85708400   -2.66755500   -1.60744800
 C                  2.20337900   -2.72247800   -1.99271500
 C                  2.84178700   -3.92994000   -2.25620400
 H                  3.88449400   -3.94105600   -2.55529500
 C                  0.12904300   -3.85590100   -1.50087100
 C                  0.74959200   -5.07103800   -1.77665200
 H                  0.18295400   -5.99422800   -1.71032500
 C                  2.09933200   -5.10231800   -2.14024700
 H                  2.57897200   -6.05440400   -2.34761100
 H                 -0.91880400   -3.83548800   -1.21584500
 C                  1.53424900    2.61475100   -0.16002800
 C                  1.73908900    2.89953700   -1.51352400
 C                  1.27224800    4.07881600   -2.08761800
 C                  0.81580500    3.51205800    0.63436700
 C                  0.33834100    4.69241300    0.07372100
 H                 -0.22666800    5.39166800    0.68207800
 C                  0.56980200    4.96748800   -1.27820100
 H                  1.44270400    4.27794600   -3.14081500
 H                  0.18852300    5.88756500   -1.71197800
 H                  0.62613900    3.28171600    1.68032500
 H                  4.69234700   -0.57515000    0.50553400
 H                  5.39534100    0.07018100    1.99234600
 H                  3.79922800   -0.70066600    2.03595800
 H                  4.36131100    2.09703900    3.12365700
 H                  3.03972500    2.98484900    2.36333900
 H                  2.73644700    1.39228500    3.09925100
 H                  4.28139100    3.17977400    0.16033400
 H                  5.63418500    2.44359700    1.02548800
 H                  5.11925500    1.76660300   -0.51610800
 H                 -0.18329200    1.54693700   -2.78220400
 H                 -1.93760600    1.41174600   -2.93007500
 H                 -1.20077000    1.47697400   -1.32072900
 H                 -2.46991300   -0.66456900   -0.77215700
 H                 -3.13820900   -0.68446400   -2.40322600
 H                 -2.29727900   -2.11371300   -1.79662600
 H                 -0.70691700   -2.04062400   -3.82550000
 H                 -1.66458900   -0.66430600   -4.38543500
 H                  0.08490100   -0.51767900   -4.27190500
