47
F:19-25;2-15; C:25; L:26-47; K:26,27
O       0.039000       -1.767861        0.038359  
C      -0.688023       -2.602390        0.758649  
C      -0.610224       -4.034013        0.377927  
H      -0.737866       -2.410514        1.833121  
C      -0.233425       -4.431733       -0.914795  
C      -0.925843       -5.002611        1.343754  
C      -0.165842       -5.788064       -1.230546  
H       0.008158       -3.675811       -1.655551  
C      -0.855817       -6.358822        1.023929  
H      -1.219688       -4.688206        2.342540  
C      -0.477649       -6.753672       -0.264379  
H       0.130553       -6.095501       -2.229679  
H      -1.093416       -7.105545        1.776450  
H      -0.424415       -7.809676       -0.514889  
C      -2.619502       -2.274624        0.306829  
C      -2.625080       -0.937354        0.686746  
H      -3.110741       -3.006742        0.940632  
H      -2.556731       -2.519511       -0.750859  
H      -2.247875       -0.030582       -1.195673  
C      -2.077230        0.102125       -0.127273  
Cl      -0.092409        0.199918        2.288872  
Cl       0.210585       -0.094075       -2.283235  
H      -2.861934       -0.705717        1.723164  
H      -2.302510        1.108790        0.225390  
Si      0.000000        0.000000        0.000000
O       1.875060       -0.000000       -0.000000  
O       0.127042        1.935326        0.000000  
C       2.817969        2.049798        0.619379  
C       2.271038        2.663665       -0.601204  
C       0.367843        3.179714       -1.933160  
C       3.066888        0.109858        1.979324  
C       3.874707        0.803808        2.865352  
C       3.631307        2.766862        1.493847  
C       4.162917        2.147586        2.624105  
C       3.072210        3.414061       -1.459448  
C       2.514881        4.053656       -2.564657  
C       1.143652        3.935594       -2.796220  
H       3.821661        3.812340        1.282298  
H       4.789455        2.709846        3.307733  
H       4.133194        3.477679       -1.248968  
H       3.141878        4.634085       -3.232229  
H       0.664677        4.416615       -3.641100  
H      -0.699165        3.036219       -2.031467  
N       2.569844        0.733328        0.886082  
N       0.930979        2.567290       -0.863705  
H       2.795357       -0.932383        2.073428  
H       4.265805        0.283692        3.731801  
