47
F:19-25;2-15; C:25; L:26-47; K:26,27
O       0.056842       -0.002939       -1.805016  
C       0.934990       -0.545673       -2.613587  
C       0.630237       -0.506209       -4.058141  
H       1.991295       -0.449672       -2.354601  
C      -0.677461       -0.303433       -4.530209  
C       1.689064       -0.646772       -4.970159  
C      -0.916119       -0.236475       -5.901732  
H      -1.490225       -0.193514       -3.819144  
C       1.445646       -0.577231       -6.341544  
H       2.699625       -0.803328       -4.599816  
C       0.142354       -0.373898       -6.809734  
H      -1.926995       -0.076667       -6.266405  
H       2.268126       -0.680440       -7.043684  
H      -0.048718       -0.321811       -7.878049  
C       0.798864       -2.599650       -2.313388  
C       1.046880       -2.527570       -0.953164  
H       1.569964       -2.964434       -2.984528  
H      -0.227603       -2.680143       -2.662058  
C       0.070170       -2.083400       -0.003132  
H      -0.956296       -2.342641       -0.265881  
Cl      -2.228254        0.143992       -0.114536  
Cl      -0.014337        0.132973        2.251388  
H       2.077370       -2.626776       -0.616056  
H       0.316392       -2.323105        1.030578  
Si      0.000000        0.000000        0.000000
O       1.875060       -0.000000       -0.000000  
O       0.127042        1.935326        0.000000  
C       2.817969        2.049798        0.619379  
C       2.271038        2.663665       -0.601204  
C       0.367843        3.179714       -1.933160  
C       3.066888        0.109858        1.979324  
C       3.874707        0.803808        2.865352  
C       3.631307        2.766862        1.493847  
C       4.162917        2.147586        2.624105  
C       3.072210        3.414061       -1.459448  
C       2.514881        4.053656       -2.564657  
C       1.143652        3.935594       -2.796220  
H       3.821661        3.812340        1.282298  
H       4.789455        2.709846        3.307733  
H       4.133194        3.477679       -1.248968  
H       3.141878        4.634085       -3.232229  
H       0.664677        4.416615       -3.641100  
H      -0.699165        3.036219       -2.031467  
N       2.569844        0.733328        0.886082  
N       0.930979        2.567290       -0.863705  
H       2.795357       -0.932383        2.073428  
H       4.265805        0.283692        3.731801  
