47
F:19-25;2-15; C:25; L:26-47; K:26,27
O       0.093467       -1.768131        0.117716  
C      -0.656751       -2.669300       -0.484466  
C      -0.270429       -4.088408       -0.291792  
H      -1.731810       -2.478658       -0.507397  
C       1.033459       -4.456240        0.076544  
C      -1.245882       -5.078569       -0.487167  
C       1.351055       -5.802050        0.255153  
H       1.783821       -3.685925        0.225721  
C      -0.924395       -6.424156       -0.307149  
H      -2.254259       -4.788654       -0.772966  
C       0.375159       -6.788652        0.062598  
H       2.359226       -6.084873        0.545639  
H      -1.685048       -7.186207       -0.452094  
H       0.626837       -7.836425        0.202211  
C      -0.279437       -2.527328       -2.462049  
C      -0.635825       -1.188988       -2.564657  
H      -0.940018       -3.285933       -2.871070  
H       0.774742       -2.787902       -2.405056  
C       0.198418       -0.125813       -2.105213  
H       1.264867       -0.297056       -2.256263  
Cl      -0.095011        0.144077        2.232543  
Cl      -2.230330        0.205439       -0.168376  
H      -1.669803       -0.955600       -2.808640  
H      -0.133172        0.848121       -2.461929  
Si      0.000000        0.000000        0.000000
O       1.875060       -0.000000       -0.000000  
O       0.127042        1.935326        0.000000  
C       2.817969        2.049798        0.619379  
C       2.271038        2.663665       -0.601204  
C       0.367843        3.179714       -1.933160  
C       3.066888        0.109858        1.979324  
C       3.874707        0.803808        2.865352  
C       3.631307        2.766862        1.493847  
C       4.162917        2.147586        2.624105  
C       3.072210        3.414061       -1.459448  
C       2.514881        4.053656       -2.564657  
C       1.143652        3.935594       -2.796220  
H       3.821661        3.812340        1.282298  
H       4.789455        2.709846        3.307733  
H       4.133194        3.477679       -1.248968  
H       3.141878        4.634085       -3.232229  
H       0.664677        4.416615       -3.641100  
H      -0.699165        3.036219       -2.031467  
N       2.569844        0.733328        0.886082  
N       0.930979        2.567290       -0.863705  
H       2.795357       -0.932383        2.073428  
H       4.265805        0.283692        3.731801  
