65
F:19-23;2-15 C:23 L:24-65; K:1,2
O   1.064943    1.266207    0.123237  
C   2.362767    1.468784    0.240895  
C   3.006407    2.309839   -0.797935  
H   2.949783    0.589090    0.524365  
C   2.277296    3.274885   -1.511016  
C   4.371957    2.119571   -1.064889  
C   2.916351    4.039481   -2.486110  
H   1.222580    3.410874   -1.292740  
C   5.004853    2.883883   -2.044737  
H   4.930244    1.367282   -0.511455  
C   4.278116    3.847445   -2.754187  
H   2.354411    4.786144   -3.040463  
H   6.058975    2.728969   -2.256745  
H   4.770471    4.445846   -3.515908  
C   2.911912    2.467271    1.875940  
C   1.831184    2.091881    2.618187  
H   2.980480    3.515778    1.586373  
H   3.867384    1.972593    2.042559  
C   0.661477    1.672389    2.861732  
H   0.091977    1.630073    3.779723  
Cl  -2.241435    0.862613    2.422644  
Cl  -0.918839    3.297044    0.738155  
Si  -0.381201    1.161761    1.164815  
O  -1.218456    0.648967   -0.411998  
O  -0.071413   -0.687795    1.540917  
C  -1.627451   -1.657102   -0.508989  
C  -0.184974   -1.915731   -0.452786  
C   1.856277   -1.691679    0.749411  
C  -3.406880   -0.073021   -0.472786  
C  -4.374292   -1.070404   -0.622136  
C  -2.558839   -2.680895   -0.669751  
C  -3.917165   -2.396551   -0.728560  
C   0.470263   -2.714070   -1.389025  
C   1.828176   -2.978508   -1.267160  
C   2.556439   -2.465209   -0.178381  
H  -2.200203   -3.701329   -0.734871  
H  -4.626230   -3.204806   -0.866938  
H  -0.101007   -3.108118   -2.221167  
H   2.323617   -3.596580   -2.007130  
H   2.303917   -1.256992    1.632109  
N  -2.093318   -0.374955   -0.436501  
N   0.544502   -1.421744    0.593174  
H  -3.629593    0.979902   -0.378644  
C   4.003371   -2.690454   -0.007727  
C   4.577653   -2.774650    1.274578  
C   4.833498   -2.805185   -1.138247  
C   5.950411   -2.970821    1.420057  
H   3.947834   -2.715572    2.157829  
C   6.206709   -2.994392   -0.988293  
H   4.407614   -2.718002   -2.133462  
C   6.768711   -3.078510    0.290162  
H   6.380421   -3.046857    2.414550  
H   6.838375   -3.069535   -1.868686  
H   7.838495   -3.228046    0.405580  
C  -5.805430   -0.716945   -0.659569  
C  -6.231850    0.519711   -1.180156  
C  -6.768318   -1.619330   -0.169771  
C  -7.587856    0.841816   -1.212733  
H  -5.506912    1.219890   -1.585083  
C  -8.122863   -1.290999   -0.198837  
H  -6.454889   -2.565827    0.260599  
C  -8.536924   -0.061088   -0.721644  
H  -7.903772    1.794879   -1.626970  
H  -8.854299   -1.991728    0.193407  
H  -9.593000    0.192647   -0.745016  
