57
F:19-23;2-15 C:23 L:24-57; K:1,2
O   2.434154   -0.750059    0.507576  
C   2.919965   -0.738579   -0.730300  
C   4.405268   -0.774125   -0.833980  
H   2.436765   -0.041548   -1.421263  
C   5.202622   -1.279608    0.204279  
C   5.007183   -0.298098   -2.008918  
C   6.590381   -1.299738    0.065978  
H   4.730246   -1.643039    1.111372  
C   6.396056   -0.319262   -2.143189  
H   4.385759    0.093345   -2.811393  
C   7.189976   -0.822553   -1.106520  
H   7.206895   -1.685443    0.873321  
H   6.858139    0.057844   -3.051336  
H   8.271518   -0.840138   -1.209971  
C   2.461437   -2.345402   -1.699858  
C   1.238330   -2.547925   -1.109651  
H   2.495897   -2.006630   -2.735065  
H   3.246414   -3.053463   -1.432582  
C   0.340383   -2.401817   -0.232855  
H  -0.527124   -2.999945   -0.000005  
Cl   1.093156    1.005080    2.325802  
Cl   1.104856   -2.225887    2.663267  
Si   0.738781   -0.759476    1.016355  
O   0.237081    0.272608   -0.493037  
O  -1.083244   -0.653774    1.558077  
C  -1.816033    1.377231   -0.192212  
C  -2.489207    0.071318   -0.204982  
C  -2.742061   -2.070976    0.825120  
C   0.244088    2.577573   -0.346213  
C  -0.422202    3.810363   -0.253528  
C  -2.515279    2.557969   -0.098778  
C  -1.852273    3.808245   -0.127183  
C  -3.571941   -0.180600   -1.016101  
C  -4.285652   -1.399945   -0.941285  
C  -3.853951   -2.372678    0.023045  
H  -3.592287    2.517017    0.018171  
C  -2.534930    5.042931   -0.023432  
H  -3.871754    0.581424   -1.727181  
C  -5.399178   -1.693998   -1.763153  
C  -4.542882   -3.606399    0.147597  
H  -2.359142   -2.736766    1.589248  
N  -0.435493    1.430488   -0.327668  
N  -2.089878   -0.910923    0.698344  
H   1.317118    2.485512   -0.445393  
C   0.289050    5.036767   -0.272580  
C  -1.820087    6.225598   -0.045932  
C  -0.407066    6.223618   -0.169875  
H   1.370905    5.025122   -0.363029  
H  -3.616175    5.045065    0.075669  
H  -2.344068    7.173252    0.035228  
H   0.128476    7.167843   -0.180981  
C  -6.052213   -2.904060   -1.625155  
C  -5.624771   -3.861318   -0.669213  
H  -4.209478   -4.333404    0.881669  
H  -5.729004   -0.961557   -2.493676  
H  -6.907109   -3.129250   -2.255695  
H  -6.157510   -4.803213   -0.582662  
