67
 F:4-33;23-4; K:7,13;
 C      3.756926     -2.702067     -0.259667
 C      3.109977     -1.999352     -1.442624
 C      1.618844     -2.311222     -1.481719
 C      0.949311     -2.061596     -0.156101
 C      1.605182     -2.094206      1.026877
 C      3.080453     -2.361428      1.044420
 O      3.691198     -2.295838      2.095632
 C      1.005267     -1.811052      2.367558
 H      1.219121     -2.622016      3.076563
 H      1.459991     -0.910092      2.804736
 H     -0.077728     -1.641400      2.310497
 H      4.823901     -2.470601     -0.158349
 H      3.681069     -3.796001     -0.391372
 H      3.577704     -2.319842     -2.382565
 H      3.273502     -0.912888     -1.373980
 H      1.497870     -3.374925     -1.757095
 H      1.116022     -1.736497     -2.275680
 C     -3.075755     -2.392487      0.676293
 H     -3.860673     -1.643138      0.523419
 H     -3.561557     -3.379386      0.619145
 H     -2.671014     -2.272705      1.688301
 C     -2.031658     -2.296575     -0.396304
 C     -0.846133     -3.095204     -0.308129
 C     -2.582483     -2.099377     -1.791974
 H     -1.763775     -1.916482     -2.511463
 H     -3.258070     -1.225719     -1.814804
 H     -3.116115     -3.020141     -2.027561
 C     -0.685825     -4.128803      0.765828
 H      0.290530     -4.622555      0.708665
 H     -0.814291     -3.732817      1.778396
 H     -1.466496     -4.889179      0.608239
 H     -0.496954     -3.420933     -1.290720
Pd     -0.661149     -0.720417     -0.133405
 C      0.140574      2.156968     -0.720447
 C      0.828169      3.303169     -1.089479
 C      2.203989      3.350675     -0.863688
 C      2.816147      2.258576     -0.269478
 C      4.280551      2.278906      0.083617
 C      2.047281      1.138691      0.055347
 N      0.744868      1.079448     -0.178658
 H      2.783156      4.229565     -1.138792
 H      0.295792      4.141009     -1.532939
 H      2.504157      0.264101      0.521474
 C     -1.321831      2.050702     -0.787860
 O     -2.010404      3.067716     -1.289326
 N     -1.973998      1.055603     -0.296078
 C     -3.399607      2.636768     -1.248381
 H     -4.001917      3.503791     -0.967426
 H     -3.667346      2.318445     -2.263357
 C     -3.388740      1.489343     -0.232140
 C     -3.724938      1.962930      1.107159
 H     -4.045232      0.701315     -0.536984
 F      5.067159      2.604523     -0.978643
 F      4.701640      1.054292      0.520972
 F      4.563714      3.165564      1.077011
 C     -4.450047      0.920509      1.976690
 H     -4.663909      1.357172      2.959002
 H     -5.400223      0.614298      1.523268
 H     -3.832832      0.026630      2.125781
 C     -2.420436      2.369791      1.830606
 H     -1.882960      3.144170      1.272814
 H     -2.654068      2.763170      2.828167
 H     -1.756605      1.504365      1.942754
 C     -4.639751      3.202693      0.978236
 H     -4.875183      3.598000      1.974599
 H     -4.153361      3.995472      0.399775
 H     -5.578046      2.938063      0.476446
