75
L:28-75 K:4,5;39
C       1.818110        0.017315        3.152032  
C       2.469576        0.682713        2.119067  
C       1.852349        1.761635        1.457287  
C       0.560385        2.185644        1.843011  
C      -0.071932        1.514974        2.894239  
C       0.542492        0.439934        3.542552  
H       3.540095        2.081470        0.130514  
H       2.293940       -0.824429        3.645841  
H       3.458131        0.366380        1.799671  
C       2.537966        2.429167        0.369935  
C      -0.133022        3.348454        1.139360  
H      -1.059856        1.831875        3.215466  
H       0.022880       -0.069752        4.349574  
C       0.642063        3.926718       -0.075204  
C       1.987150        3.436821       -0.349687  
O       0.124961        4.807643       -0.766265  
H      -3.076392        0.619887        0.345520  
C      -1.547557        2.915768        0.639425  
C      -1.472041        1.739625       -0.288109  
H      -2.145408        2.710624        1.537682  
H      -2.009512        3.763284        0.128154  
H      -0.710427        0.990704       -0.129688  
N      -1.994140        1.764962       -1.528309  
O      -1.652170        0.812051       -2.382053  
O      -2.846076        2.626018       -1.901627  
H      -0.249459        4.166516        1.844271  
H       2.521988        3.900190       -1.174110  
C      -1.222132       -1.847841       -0.388614  
N      -0.152406       -1.228197       -1.000392  
N      -2.394582       -1.383264       -0.894052  
H      -2.327476       -0.657460       -1.627596  
H      -0.444553       -0.477556       -1.645691  
C       1.230117       -1.296479       -0.824128  
C       1.905271       -2.158869        0.053653  
C       1.985085       -0.406967       -1.617665  
C       3.298908       -2.121249        0.120944  
H       1.340070       -2.839091        0.673526  
C       3.371521       -0.388511       -1.531448  
H       1.473799        0.269159       -2.295013  
C       4.050803       -1.244798       -0.659799  
H       5.132208       -1.226212       -0.593701  
C      -3.729846       -1.823174       -0.544185  
C      -4.642172       -0.602915       -0.313061  
C      -4.329700       -2.706614       -1.656856  
H      -3.664965       -2.415720        0.372142  
C      -6.055779       -1.046973        0.072587  
C      -5.756978       -3.148244       -1.311495  
H      -4.329259       -2.135930       -2.595131  
H      -3.668503       -3.568932       -1.790145  
C      -6.648934       -1.929962       -1.040313  
H      -6.700120       -0.178830        0.234032  
H      -6.016228       -1.621829        1.005010  
H      -6.169176       -3.747237       -2.131101  
H      -5.732586       -3.787184       -0.418097  
H      -7.656142       -2.243923       -0.746248  
H      -6.745448       -1.333881       -1.957832  
C       4.187529        0.534815       -2.406340  
C       4.017303       -2.993925        1.125291  
F       5.134766        1.206710       -1.683315  
F       3.440564        1.470691       -3.042750  
F       4.863450       -0.159037       -3.369284  
F       3.291132       -4.075741        1.505878  
F       5.206578       -3.457031        0.649078  
F       4.307646       -2.294495        2.268895  
H      -4.680325       -0.008239       -1.232338  
N      -4.025379        0.359724        0.710817  
C      -3.824032       -0.235434        2.072264  
C      -4.786122        1.653092        0.783431  
H      -3.346630        0.520005        2.696817  
H      -4.796882       -0.502210        2.485087  
H      -3.178019       -1.110043        1.984603  
H      -5.777933        1.461365        1.191208  
H      -4.237433        2.327810        1.439509  
H      -4.835192        2.070540       -0.222935  
S      -1.144618       -3.015752        0.839533  
