75
L:28-75 K:4,5
C      -4.832996       -4.373092       -0.994807  
C      -4.333880       -3.095495       -1.223704  
C      -2.964147       -2.814186       -1.042448  
C      -2.076464       -3.836477       -0.620595  
C      -2.601218       -5.113929       -0.390326  
C      -3.959217       -5.385307       -0.577795  
H      -3.179369       -0.732466       -1.620130  
H      -5.889403       -4.583322       -1.136378  
H      -4.994435       -2.293160       -1.543682  
C      -2.461188       -1.485965       -1.304332  
C      -0.619496       -3.527701       -0.330238  
H      -1.948947       -5.913409       -0.054248  
H      -4.335525       -6.388381       -0.394801  
C      -0.159290       -2.149174       -0.813330  
C      -1.147985       -1.160596       -1.188763  
O       1.055155       -1.888801       -0.849355  
H       2.731041       -1.046109       -0.819059  
C      -0.500279       -3.514749        1.292270  
C       0.813027       -3.110004        1.832496  
H      -1.287285       -2.864565        1.678686  
H      -0.723620       -4.549014        1.577090  
H       1.673474       -3.764382        1.838033  
N       1.037863       -1.876320        2.273646  
O       2.219822       -1.512699        2.685888  
O       0.080539       -0.992715        2.312419  
H       0.052407       -4.290525       -0.712768  
H      -0.787567       -0.164165       -1.423221  
C       1.823768        1.405446        0.303553  
N       0.574437        1.270367        0.861971  
N       2.743586        0.640493        0.946761  
H       2.428033        0.020281        1.711752  
H       0.447714        0.433417        1.477488  
C      -0.622974        1.929803        0.580361  
C      -1.810488        1.224043        0.865587  
C      -0.717823        3.245646        0.103945  
C      -3.049442        1.809971        0.636643  
H      -1.740174        0.214339        1.249999  
C      -1.976067        3.814787       -0.119306  
H       0.177980        3.820411       -0.081956  
C      -3.152414        3.109675        0.126849  
H      -4.121087        3.557704       -0.058487  
C       4.183560        0.531576        0.709764  
C       4.557393       -0.048896       -0.669454  
C       4.963571        1.839059        0.953541  
H       4.517173       -0.185808        1.467727  
C       6.060879       -0.315390       -0.758507  
C       6.475815        1.598427        0.840777  
H       4.645272        2.586567        0.220992  
H       4.699270        2.208047        1.950250  
C       6.833529        0.993996       -0.524647  
H       6.315256       -0.732916       -1.737771  
H       6.356725       -1.042640        0.007223  
H       7.011003        2.542845        0.991465  
H       6.797398        0.908979        1.634493  
H       7.908677        0.794246       -0.589609  
H       6.581827        1.709342       -1.319045  
C      -2.031155        5.214218       -0.686215  
C      -4.323336        1.040845        0.891065  
F      -1.752642        5.221759       -2.026814  
F      -1.120540        6.044034       -0.101573  
F      -3.250377        5.799031       -0.539713  
F      -4.116563       -0.168953        1.469512  
F      -5.182191        1.728640        1.699058  
F      -5.005433        0.807020       -0.276036  
H       4.255598        0.667059       -1.435997  
N       3.723499       -1.289577       -0.969213  
C       3.980298       -2.455864       -0.058937  
C       3.816421       -1.697992       -2.408378  
H       3.736145       -2.161384        0.962958  
H       3.309344       -3.254616       -0.371592  
H       5.021450       -2.760954       -0.159795  
H       4.813538       -2.092368       -2.603683  
H       3.058602       -2.463085       -2.578789  
H       3.618430       -0.820537       -3.026181  
S       2.163684        2.353466       -1.069663  
