75
L:28-75 K:4,5
C      -3.090175        1.365308       -1.561485  
C      -1.978890        0.913200       -2.263505  
C      -0.731297        1.552286       -2.120468  
C      -0.597726        2.658058       -1.249800  
C      -1.719307        3.078486       -0.528718  
C      -2.955885        2.446296       -0.684250  
H       0.259606        0.222326       -3.521374  
H      -4.048238        0.870895       -1.679729  
H      -2.059038        0.061799       -2.933714  
C       0.409351        1.090918       -2.883202  
C       0.734826        3.388785       -1.100272  
H      -1.635443        3.916827        0.156538  
H      -3.812984        2.796126       -0.116308  
C       1.879497        2.846910       -1.997573  
C       1.625529        1.691519       -2.842653  
O       2.985593        3.395719       -1.962145  
H       2.342192        1.397599        0.395499  
C       1.229069        3.315039        0.375745  
C       1.445614        1.877303        0.824240  
H       2.156696        3.885899        0.455049  
H       0.477722        3.789378        1.013763  
H       0.584598        1.244097        0.602520  
N       1.663900        1.748597        2.317774  
O       1.549932        0.607941        2.797574  
O       1.969396        2.731527        2.972780  
H       0.601404        4.435652       -1.357083  
H       2.454773        1.325638       -3.440062  
C       0.917769       -1.782297        0.059471  
N      -0.119211       -1.216302        0.789277  
N       2.119125       -1.517141        0.614685  
H       2.148437       -0.923008        1.436319  
H       0.184985       -0.710233        1.615101  
C      -1.509056       -1.192786        0.635216  
C      -2.240526       -1.967502       -0.277197  
C      -2.206930       -0.330002        1.502502  
C      -3.632444       -1.868328       -0.305327  
H      -1.721238       -2.633020       -0.951249  
C      -3.592904       -0.245068        1.452288  
H      -1.656197        0.280570        2.210999  
C      -4.328867       -1.014716        0.547911  
H      -5.408111       -0.939331        0.504663  
C       3.407938       -2.087772        0.227596  
C       4.534502       -1.126324        0.658325  
C       3.586550       -3.473619        0.877034  
H       3.412933       -2.203628       -0.859590  
C       5.907718       -1.755137        0.328628  
C       4.957582       -4.079347        0.551444  
H       3.485997       -3.356897        1.965096  
H       2.774563       -4.122993        0.533124  
C       6.079212       -3.128998        0.991762  
H       6.700247       -1.070296        0.649677  
H       5.996040       -1.871604       -0.758745  
H       5.059066       -5.054369        1.042850  
H       5.032295       -4.250108       -0.532042  
H       7.061232       -3.546200        0.737551  
H       6.046301       -3.012803        2.084682  
C      -4.323073        0.664184        2.413230  
C      -4.387719       -2.645310       -1.359617  
F      -3.551823        1.697426        2.848736  
F      -4.736500       -0.012771        3.526486  
F      -5.438928        1.210931        1.854982  
F      -4.456381       -1.939581       -2.533373  
F      -3.799466       -3.833993       -1.657848  
F      -5.670035       -2.914037       -0.994783  
H       4.468104       -1.026900        1.752324  
N       4.322090        0.233093        0.117503  
C       4.502784        0.329025       -1.334233  
C       5.134407        1.236590        0.808479  
H       4.257210        1.346008       -1.649957  
H       5.537584        0.109185       -1.652007  
H       3.825204       -0.363542       -1.842312  
H       4.960944        1.166720        1.888558  
H       6.218005        1.123466        0.620680  
H       4.834619        2.233198        0.464968  
S       0.743121       -2.671912       -1.371138  
