75
L:28-75 K:4,5
C       7.004965        0.243417       -0.881794  
C       6.262813       -0.512360       -1.784196  
C       5.329732       -1.465115       -1.327059  
C       5.136469       -1.658819        0.060489  
C       5.890959       -0.889423        0.951036  
C       6.818076        0.050066        0.491820  
H       4.750251       -2.058600       -3.336356  
H       7.722351        0.975988       -1.240426  
H       6.395215       -0.378616       -2.855128  
C       4.572226       -2.252041       -2.279673  
C       4.085540       -2.635762        0.582087  
H       5.749966       -1.011781        2.020345  
H       7.389224        0.634800        1.207678  
C       3.410573       -3.506192       -0.512931  
C       3.680740       -3.206253       -1.913838  
O       2.628816       -4.402010       -0.186929  
H       1.921447        0.094107        0.827750  
C       2.944138       -1.809534        1.260358  
C       2.225068       -0.844603        0.318498  
H       2.225609       -2.502740        1.705773  
H       3.389705       -1.229999        2.072332  
H       2.822086       -0.563640       -0.550331  
N       0.923902       -1.366858       -0.241984  
O       0.583770       -0.918203       -1.353295  
O       0.220860       -2.106057        0.431724  
H       4.511179       -3.300721        1.327972  
H       3.141885       -3.791361       -2.653949  
C      -1.326042        1.821654       -0.018332  
N      -1.839151        0.640529       -0.518497  
N      -0.022360        2.010156       -0.342623  
H       0.402343        1.350161       -0.983699  
H      -1.163284       -0.012557       -0.909639  
C      -3.116337        0.081188       -0.331937  
C      -4.294263        0.831774       -0.419225  
C      -3.191585       -1.305606       -0.122595  
C      -5.529337        0.196531       -0.259616  
H      -4.245863        1.892865       -0.620856  
C      -4.433238       -1.922226        0.012771  
H      -2.275971       -1.884477       -0.065004  
C      -5.615594       -1.176841       -0.036680  
H      -6.577204       -1.660607        0.083073  
C       0.732312        3.248938       -0.155539  
C       2.180671        2.973429        0.304744  
C       0.712807        4.073048       -1.457077  
H       0.215088        3.818511        0.619226  
C       2.901408        4.331882        0.485949  
C       1.457474        5.403369       -1.289318  
H       1.184037        3.483186       -2.256295  
H      -0.332652        4.241584       -1.738608  
C       2.892653        5.157263       -0.808486  
H       3.933735        4.157214        0.804799  
H       2.400678        4.896380        1.283471  
H       1.454233        5.954861       -2.237065  
H       0.928264        6.019922       -0.549285  
H       3.413732        6.108737       -0.647236  
H       3.446025        4.610715       -1.585909  
C      -4.530199       -3.406727        0.277963  
C      -6.775064        1.050623       -0.322654  
F      -3.365124       -4.065118        0.051799  
F      -5.482108       -3.999769       -0.499756  
F      -4.882773       -3.659509        1.575407  
F      -6.867930        1.878476        0.760668  
F      -6.782279        1.857524       -1.423912  
F      -7.919903        0.320275       -0.359152  
H       2.695321        2.429970       -0.503202  
N       2.238573        2.079943        1.481752  
C       1.477026        2.538587        2.647209  
C       3.615914        1.750022        1.853725  
H       1.553657        1.775959        3.430268  
H       1.857695        3.490812        3.058254  
H       0.421608        2.660442        2.388158  
H       4.158204        1.383763        0.975721  
H       4.171230        2.605361        2.275455  
H       3.596359        0.958296        2.610292  
S      -2.212092        2.900011        0.944838  
