91
F:20-27;
 C                 -5.15402100   -0.77741400    0.20969600
 C                 -3.94565700   -1.08583800    0.83739300
 C                 -2.95871200   -0.10529800    0.99994900
 C                 -3.20778200    1.19143100    0.53145500
 C                 -4.42323700    1.49227400   -0.08364800
 C                 -5.41221300    0.51545800   -0.25626200
 H                 -3.78278700   -2.10137500    1.18722200
 H                 -2.45244200    1.96890300    0.58227700
 H                 -6.34864500    0.75190800   -0.74377100
 H                 -4.60349023    2.48840351   -0.43025263
 H                 -5.89284546   -1.54102028    0.08342695
 C                 -1.70736200   -0.52172900    1.65954600
 H                 -1.61036700   -1.60209900    1.76941500
 C                 -1.64273500    1.43537700    3.35374000
 H                 -0.90577000    1.95904200    3.96605000
 H                 -2.05252300    2.13776000    2.63291600
 H                 -2.46511000    1.10572300    3.99921900
 N                 -0.29105200   -0.56566300    3.63968000
 H                 -0.56252900   -0.48208600    4.61065600
 C                 -1.03632300    0.22827700    2.68729100
 C                  0.67985700   -1.43753600    3.30400100
 O                  1.10618200   -1.50304500    2.13141900
 C                  1.25557000   -2.29949800    4.37688500
 H                  0.84653100   -2.08889200    5.36509600
 H                  1.06390600   -3.34685600    4.13165700
 H                  2.33983600   -2.16738400    4.39578600
 H                  0.24958700    1.15030400    2.08242600
 H                 -0.44266100    1.27041100   -0.01516400
 Rh                 0.22966300    0.14043900    0.80386900
 P                  0.41497900   -1.11214800   -1.18749500
 C                  1.79693500   -0.41865000   -2.27787700
 O                  2.76388600   -1.46670200   -2.48889700
 H                  1.40342500   -0.13917400   -3.26114800
 P                  2.18692500    1.15537600    0.10888400
 C                  2.50553600    0.80417700   -1.70926100
 O                  2.04910500    1.96130500   -2.43227800
 H                  3.58431700    0.68998200   -1.88908100
 C                  3.78735200    0.78640000    1.01019800
 C                 -0.99586500   -1.52380800   -2.35446000
 C                  4.92592800    1.65939000    0.48760000
 C                  3.55267600    1.06318900    2.49602900
 C                  4.09027400   -0.69731400    0.78583700
 C                 -0.48414900   -2.10862000   -3.66912100
 C                 -1.86266100   -2.56173100   -1.64071400
 C                 -1.77819900   -0.23318600   -2.59277900
 C                  2.08382500    2.91264700   -0.26432100
 C                  1.99848300    3.08126600   -1.65069300
 C                  1.82401700    4.33765900   -2.22288600
 H                  1.76241900    4.44220800   -3.30096500
 C                  1.96879300    4.02337100    0.57319000
 C                  1.80790000    5.28912000    0.01494000
 H                  1.73366200    6.15937100    0.65903700
 C                  1.73361700    5.43722800   -1.37359200
 H                  1.60088000    6.42584600   -1.80281400
 H                  2.00249600    3.90200600    1.65321900
 C                  1.36201600   -2.62421700   -0.97633700
 C                  2.52739300   -2.58665900   -1.74596100
 C                  3.43256700   -3.64498500   -1.74635500
 C                  1.10758000   -3.72469100   -0.15531500
 C                  2.00301400   -4.78868500   -0.14063500
 H                  1.81311900   -5.65075400    0.49082200
 C                  3.15304500   -4.74318100   -0.93715900
 H                  4.33026600   -3.59791200   -2.35403400
 H                  3.85106100   -5.57532200   -0.92000600
 H                  0.22091900   -3.73486600    0.47348800
 H                 -2.16295900    0.18214900   -1.65476200
 H                 -1.16434900    0.53538300   -3.07822800
 H                 -2.63127300   -0.43779300   -3.24990100
 H                 -2.79206200   -2.70734100   -2.20309000
 H                 -1.35653300   -3.53026100   -1.57489400
 H                 -2.13993500   -2.24317400   -0.63141400
 H                  0.15914000   -2.98008300   -3.50649300
 H                 -1.34087400   -2.43970600   -4.26651000
 H                  0.06343100   -1.37980400   -4.27396700
 H                  4.29202900   -0.91718700   -0.26916100
 H                  4.98818000   -0.97218600    1.35028300
 H                  3.26857700   -1.33778700    1.12624200
 H                  2.72159700    0.47036500    2.89051200
 H                  4.45480600    0.80173100    3.05962700
 H                  3.34117700    2.12071000    2.68718000
 H                  4.72578400    2.72479400    0.63671000
 H                  5.84324500    1.41015600    1.03247300
 H                  5.12732700    1.49573500   -0.57607500
