69
F:19-23;2-15 C:23 L:24-69; K:1,2
O   1.795083   -1.340271    0.030568  
C   2.233980   -2.580660   -0.166937  
C   3.677988   -2.697764   -0.503231  
H   1.573561   -3.222551   -0.755895  
C   4.604556   -1.716918   -0.116062  
C   4.110327   -3.825323   -1.218047  
C   5.949861   -1.862686   -0.452982  
H   4.261680   -0.849846    0.439746  
C   5.457174   -3.966802   -1.554512  
H   3.387868   -4.581781   -1.515627  
C   6.379163   -2.986417   -1.171139  
H   6.666255   -1.101000   -0.157403  
H   5.786517   -4.836251   -2.116568  
H   7.428308   -3.095995   -1.432044  
C   2.171399   -3.658086    1.447165  
C   1.030638   -3.102730    1.968737  
H   2.112781   -4.655501    1.011810  
H   3.103447   -3.448088    1.972778  
C   0.105430   -2.250050    2.090759  
H  -0.682761   -2.097076    2.813891  
Cl   1.215382    0.558349    2.124822  
Cl  -0.910302   -2.192051   -0.829719  
Si   0.212353   -0.822491    0.608816  
O   0.173349    0.450691   -0.729812  
O  -1.403121   -0.108502    1.286987  
C  -1.273699    2.227375   -0.211719  
C  -2.421203    1.314405   -0.281550  
C  -3.466063   -0.700241    0.431847  
C   1.076943    2.549099   -0.403823  
C   0.974125    3.923152   -0.187586  
C  -1.423432    3.593415   -0.000046  
C  -0.313152    4.435890    0.014073  
C  -3.546095    1.604309   -1.044893  
C  -4.630446    0.729464   -1.074837  
C  -4.606989   -0.458044   -0.333202  
H  -2.420425    3.982669    0.169683  
H  -0.460386    5.494445    0.190518  
H  -3.549455    2.514651   -1.632588  
H  -5.487264    0.977916   -1.689169  
C  -5.727510   -1.497222   -0.327387  
H  -3.333661   -1.571101    1.057015  
N  -0.009688    1.753914   -0.420925  
N  -2.429749    0.161427    0.453767  
H   2.009194    2.032346   -0.580760  
C   2.252587    4.759802   -0.182838  
C   2.944525    4.624037   -1.560033  
C   1.959180    6.245484    0.083569  
C   3.195038    4.227340    0.923179  
H   2.291622    4.990237   -2.360370  
H   3.864358    5.218978   -1.556851  
H   3.211306    3.583272   -1.773597  
H   2.905147    6.795844    0.082613  
H   1.314987    6.671218   -0.694337  
H   1.478996    6.389090    1.058288  
H   3.465918    3.180095    0.751049  
H   4.113841    4.824140    0.924840  
H   2.721298    4.306560    1.907750  
C  -5.164908   -2.830273   -0.877453  
C  -6.225349   -1.704094    1.122516  
C  -6.914255   -1.059457   -1.201390  
H  -4.330648   -3.195851   -0.269333  
H  -5.959836   -3.584126   -0.863854  
H  -4.814836   -2.705409   -1.908123  
H  -6.614800   -0.936111   -2.248433  
H  -7.688088   -1.832211   -1.156368  
H  -7.348019   -0.118467   -0.844045  
H  -5.425028   -2.066053    1.776837  
H  -6.620828   -0.768888    1.534716  
H  -7.025669   -2.452107    1.118762  
