69
F:19-23;2-15 C:23 L:24-69; K:1,2
O   1.046052   -1.221265    0.011319  
C   2.087852   -2.005492    0.238157  
C   3.104966   -1.435799    1.161653  
H   2.487996   -2.526689   -0.635684  
C   2.751147   -0.491724    2.138790  
C   4.436437   -1.862681    1.052437  
C   3.723234    0.015016    2.999013  
H   1.720066   -0.160349    2.209775  
C   5.408976   -1.346064    1.910806  
H   4.707643   -2.590324    0.291322  
C   5.052919   -0.411996    2.889123  
H   3.449414    0.749114    3.751707  
H   6.441358   -1.670417    1.815775  
H   5.809172   -0.011908    3.558708  
C   1.583123   -3.627781    1.211530  
C   0.297031   -3.698985    0.744235  
H   2.314851   -4.335608    0.822737  
H   1.712508   -3.372065    2.263118  
C  -0.752916   -3.318193    0.151215  
H  -1.746987   -3.732883    0.069697  
Cl   0.598269   -2.510488   -2.592695  
Cl  -2.465990   -1.778706   -1.882148  
Si  -0.460419   -1.535859   -0.877331  
O  -1.277788   -0.673706    0.619076  
O  -0.356166    0.130902   -1.688725  
C  -1.748515    1.583943    0.156868  
C  -0.324283    1.839195   -0.095162  
C   1.635957    1.262599   -1.324444  
C  -3.474564    0.030485    0.670409  
C  -4.461582    1.016681    0.635924  
C  -2.694869    2.600415    0.131260  
C  -4.040428    2.324706    0.368892  
C   0.387309    2.861145    0.530957  
C   1.729441    3.061504    0.233366  
C   2.391458    2.249952   -0.703945  
H  -2.365519    3.606513   -0.100724  
H  -4.756546    3.136289    0.331668  
H  -0.122361    3.473111    1.265922  
H   2.273078    3.849134    0.742589  
C   3.870428    2.451706   -1.023849  
H   2.009894    0.572380   -2.066038  
N  -2.174910    0.316633    0.453766  
N   0.330482    1.087236   -1.020013  
H  -3.668992   -1.010895    0.882141  
C  -5.913613    0.608516    0.882754  
C  -6.024030   -0.046707    2.279946  
C  -6.863801    1.815628    0.821011  
C  -6.332005   -0.413829   -0.201291  
H  -5.727756    0.659017    3.064356  
H  -7.063712   -0.346332    2.451509  
H  -5.394405   -0.939854    2.355469  
H  -7.885864    1.467957    1.001386  
H  -6.615518    2.560763    1.585563  
H  -6.834073    2.295809   -0.163769  
H  -5.698664   -1.306822   -0.177525  
H  -7.367855   -0.721180   -0.019670  
H  -6.267080    0.032462   -1.199685  
C   4.684059    2.337952    0.285825  
C   4.397974    1.404322   -2.018955  
C   4.050444    3.864489   -1.626620  
H   4.573575    1.343618    0.727674  
H   5.742503    2.507504    0.059173  
H   4.369404    3.085243    1.022188  
H   3.710343    4.639249   -0.930779  
H   5.113368    4.029999   -1.834324  
H   3.489403    3.962041   -2.562935  
H   4.286796    0.389316   -1.619409  
H   3.879803    1.466922   -2.982848  
H   5.462562    1.588638   -2.193179  
