57
F:19-23;2-15 C:23 L:24-57; K:1,2
O  -2.638910   -0.155724    0.074947  
C  -3.784980    0.302086   -0.420506  
C  -4.935107    0.298396    0.522207  
H  -3.702195    1.201348   -1.037032  
C  -4.978965   -0.566969    1.626561  
C  -5.998349    1.183128    0.284035  
C  -6.074863   -0.535116    2.488520  
H  -4.152920   -1.248615    1.803284  
C  -7.092203    1.212708    1.149480  
H  -5.960268    1.850628   -0.573944  
C  -7.132875    0.351960    2.252255  
H  -6.105727   -1.200902    3.346709  
H  -7.908919    1.905450    0.966759  
H  -7.984707    0.373031    2.926607  
C  -4.494060   -0.835137   -1.826751  
C  -3.285477   -1.183773   -2.373342  
H  -5.115071   -0.112236   -2.355075  
H  -5.050089   -1.621918   -1.315935  
C  -2.028551   -1.311603   -2.426807  
H  -1.357036   -1.799999   -3.117880  
Cl  -1.151307    1.577154   -1.809147  
Cl  -1.000640   -2.525959    0.143040  
Si  -1.127312   -0.454192   -0.783239  
O  -0.203974    0.139099    0.719835  
O   0.545229   -0.666246   -1.675210  
C   1.951910    0.796652    0.134227  
C   2.262934   -0.630040   -0.099206  
C   1.833416   -2.581719   -1.414565  
C   0.351115    2.382171    0.945083  
C   1.257094    3.402077    0.860987  
C   2.910512    1.828831   -0.040744  
C   2.555472    3.167836    0.349256  
C   3.299524   -1.305621    0.596087  
C   3.618553   -2.654760    0.210844  
C   2.864829   -3.256922   -0.823837  
H   3.081247   -4.270759   -1.141594  
H   1.188149   -2.977903   -2.184676  
N   0.718997    1.113594    0.577799  
N   1.554364   -1.292872   -1.037171  
H  -0.668559    2.474667    1.289864  
H   0.960283    4.398904    1.167992  
C   4.012543   -0.705307    1.668807  
C   4.661135   -3.340662    0.880924  
C   5.348080   -2.723979    1.905562  
H   6.144377   -3.252757    2.420568  
C   5.013538   -1.405612    2.305714  
C   4.193554    1.588053   -0.601802  
C   3.504664    4.208349    0.201169  
C   4.748948    3.940021   -0.329948  
H   5.473682    4.740182   -0.445672  
C   5.088313    2.626354   -0.741347  
H   3.230533    5.214145    0.504597  
H   6.064384    2.437356   -1.177198  
H   4.462193    0.590231   -0.927055  
H   3.761477    0.297721    1.991762  
H   5.549499   -0.944133    3.129231  
H   4.898638   -4.356559    0.579690  
