57
F:19-23;2-15 C:23 L:24-57; K:1,2
O   2.684622    0.089802    0.290888  
C   3.805853   -0.611753    0.136989  
C   4.897567    0.097858   -0.587439  
H   4.132722   -1.168654    1.019759  
C   4.622607    1.123805   -1.504640  
C   6.224956   -0.286428   -0.346675  
C   5.670516    1.763807   -2.165682  
H   3.592578    1.414859   -1.686019  
C   7.271460    0.357587   -1.008906  
H   6.434308   -1.079709    0.367058  
C   6.995996    1.382306   -1.920766  
H   5.456560    2.562486   -2.870778  
H   8.298651    0.063978   -0.811235  
H   7.810158    1.884133   -2.436521  
C   3.567556   -2.135092   -1.010339  
C   2.269825   -2.403648   -0.651092  
H   4.350232   -2.796444   -0.639094  
H   3.730798   -1.773302   -2.025969  
C   1.149886   -2.197926   -0.106072  
H   0.234084   -2.767230   -0.151782  
Cl   1.042460    1.513188    2.123378  
Cl   2.021081   -1.521341    2.753858  
Si   1.162112   -0.410360    1.020581  
O   0.284500    0.254098   -0.532984  
O  -0.594972   -0.770641    1.721381  
C  -1.934501    0.789079   -0.078480  
C  -2.200993   -0.661701    0.028440  
C  -1.814571   -2.682934    1.256322  
C  -0.339528    2.487301   -0.626141  
C  -1.287834    3.466974   -0.527182  
C  -2.944402    1.769940    0.104820  
C  -2.611703    3.148317   -0.142086  
C  -3.163378   -1.321808   -0.781177  
C  -3.465324   -2.701803   -0.507305  
C  -2.775196   -3.347701    0.546740  
H  -2.989116   -4.382565    0.790975  
H  -1.220537   -3.101606    2.057091  
N  -0.685503    1.180148   -0.398575  
N  -1.534559   -1.365882    0.969719  
H   0.701589    2.641077   -0.870817  
H  -1.006109    4.496220   -0.720328  
C  -3.819728   -0.672685   -1.861076  
C  -4.430838   -3.372784   -1.295460  
C  -5.064780   -2.709812   -2.326033  
H  -5.803726   -3.226401   -2.930896  
C  -4.749605   -1.358151   -2.612689  
C  -4.255494    1.442221    0.543094  
C  -3.606906    4.142650    0.021897  
C  -4.875615    3.791416    0.433194  
H  -5.635215    4.556197    0.563453  
C  -5.195449    2.436845    0.703089  
H  -3.347982    5.179280   -0.171388  
H  -6.192852    2.180721    1.046672  
H  -4.511679    0.412502    0.760669  
H  -3.582467    0.357245   -2.098138  
H  -5.242981   -0.857486   -3.439943  
H  -4.653802   -4.412868   -1.078278  
