44
K:1,2
 P                  1.59362982   -0.03581634    0.28998712
 P                 -1.59362982    0.03581634    0.28998712
 C                  0.68959824   -0.32087455   -1.31495299
 C                 -0.68959824    0.32087455   -1.31495299
 C                  2.72158211    1.44258172    0.06628127
 C                  2.99396092   -1.31507812    0.29245005
 C                 -2.99396092    1.31507812    0.29245005
 C                 -2.72158211   -1.44258172    0.06628127
 H                  2.87849985    1.80212480    1.09171667
 H                 -2.87849985   -1.80212480    1.09171667
 H                 -3.27193133    1.64933060   -0.77215866
 H                  3.27193133   -1.64933060   -0.77215866
 C                 -3.92748117   -1.07614114   -0.44586144
 H                 -3.94164799   -0.85021824   -1.52046421
 H                 -4.60679058   -1.92127595   -0.28997224
 C                 -4.35108604    0.16073698    0.35474096
 H                 -4.49178302   -0.10544092    1.41100279
 H                 -5.30182995    0.57448081    0.00248976
 C                  4.35108604   -0.16073698    0.35474096
 H                  4.49178302    0.10544092    1.41100279
 H                  5.30182995   -0.57448081    0.00248976
 C                  3.92748117    1.07614114   -0.44586144
 H                  4.60679058    1.92127595   -0.28997224
 H                  3.94164799    0.85021824   -1.52046421
 C                  2.16164396    2.59321387   -0.77253614
 H                  1.21254738    2.96481228   -0.37306621
 H                  2.86826730    3.42935920   -0.76807917
 H                  2.00941617    2.29986125   -1.81616607
 C                  2.95426161   -2.43056027    1.33572464
 H                  2.04149214   -3.02686382    1.28558259
 H                  3.80086435   -3.10713349    1.17773558
 H                  3.04357248   -2.03959986    2.35390413
 C                 -2.95426161    2.43056027    1.33572464
 H                 -2.04149214    3.02686382    1.28558259
 H                 -3.80086435    3.10713349    1.17773558
 H                 -3.04357248    2.03959986    2.35390413
 C                 -2.16164396   -2.59321387   -0.77253614
 H                 -1.21254738   -2.96481228   -0.37306621
 H                 -2.86826730   -3.42935920   -0.76807917
 H                 -2.00941617   -2.29986125   -1.81616607
 H                 -1.25326674    0.27458404   -2.09165297
 H                 -0.36323488    1.58945158   -1.32680468
 H                  1.25326674   -0.27458404   -2.09165297
 H                  0.36323488   -1.58945158   -1.32680468