45
F:19-23;2-15 C:23 L:24-45; K:24,25
O       0.026720       -1.751639        0.159572  
C      -0.696826       -2.650981       -0.505690  
C      -0.573320       -4.049430       -0.014337  
H      -0.688017       -2.546012       -1.593760  
C      -0.220899       -4.330926        1.314916  
C      -0.826899       -5.100872       -0.908425  
C      -0.114885       -5.655081        1.738892  
H      -0.029110       -3.511381        2.000451  
C      -0.718485       -6.424839       -0.480413  
H      -1.096893       -4.877868       -1.938049  
C      -0.364500       -6.703902        0.844246  
H       0.162903       -5.872351        2.766667  
H      -0.905954       -7.236215       -1.178148  
H      -0.280979       -7.734509        1.178342  
C      -2.602555       -2.378089       -0.291679  
C      -2.570213       -1.007932       -0.221765  
H      -2.971599       -2.841072       -1.206796  
H      -2.870390       -2.908765        0.622444  
C      -2.049521        0.136199       -0.089195  
H      -2.449051        1.133730        0.023830  
Cl      -0.153689        0.220551        2.258883  
Cl       0.128617       -0.071788       -2.275300  
Si      0.000000        0.000000        0.000000
O       1.875060       -0.000000       -0.000000  
O       0.127042        1.935326        0.000000  
C       2.817969        2.049798        0.619379  
C       2.271038        2.663665       -0.601204  
C       0.367843        3.179714       -1.933160  
C       3.066888        0.109858        1.979324  
C       3.874707        0.803808        2.865352  
C       3.631307        2.766862        1.493847  
C       4.162917        2.147586        2.624105  
C       3.072210        3.414061       -1.459448  
C       2.514881        4.053656       -2.564657  
C       1.143652        3.935594       -2.796220  
H       3.821661        3.812340        1.282298  
H       4.789455        2.709846        3.307733  
H       4.133194        3.477679       -1.248968  
H       3.141878        4.634085       -3.232229  
H       0.664677        4.416615       -3.641100  
H      -0.699165        3.036219       -2.031467  
N       2.569844        0.733328        0.886082  
N       0.930979        2.567290       -0.863705  
H       2.795357       -0.932383        2.073428  
H       4.265805        0.283692        3.731801  
