45
F:19-23;2-15 C:23 L:24-45; K:1,2
O       0.196370       -0.014148       -1.769285  
C      -0.400760       -0.782229       -2.668815  
C       0.073806       -0.605905       -4.066379  
H      -1.483043       -0.886936       -2.556305  
C       1.348135       -0.087339       -4.346443  
C      -0.782046       -0.964494       -5.119132  
C       1.753977        0.079824       -5.669754  
H       2.006075        0.183894       -3.527136  
C      -0.372214       -0.794862       -6.442274  
H      -1.768315       -1.365704       -4.897614  
C       0.896595       -0.273747       -6.719702  
H       2.738466        0.486015       -5.885757  
H      -1.040870       -1.065023       -7.254693  
H       1.216237       -0.142505       -7.749839  
C      -0.000201       -2.676414       -2.398419  
C       0.070184       -2.607098       -1.032783  
H      -0.883558       -3.123489       -2.853074  
H       0.930378       -2.858664       -2.936205  
C       0.138530       -2.060374        0.106823  
H       0.275302       -2.460231        1.101331  
Cl      -2.227780        0.034490       -0.114763  
Cl      -0.039053        0.124745        2.252212  
Si      0.000000        0.000000        0.000000
O       1.875060       -0.000000       -0.000000  
O       0.127042        1.935326        0.000000  
C       2.817969        2.049798        0.619379  
C       2.271038        2.663665       -0.601204  
C       0.367843        3.179714       -1.933160  
C       3.066888        0.109858        1.979324  
C       3.874707        0.803808        2.865352  
C       3.631307        2.766862        1.493847  
C       4.162917        2.147586        2.624105  
C       3.072210        3.414061       -1.459448  
C       2.514881        4.053656       -2.564657  
C       1.143652        3.935594       -2.796220  
H       3.821661        3.812340        1.282298  
H       4.789455        2.709846        3.307733  
H       4.133194        3.477679       -1.248968  
H       3.141878        4.634085       -3.232229  
H       0.664677        4.416615       -3.641100  
H      -0.699165        3.036219       -2.031467  
N       2.569844        0.733328        0.886082  
N       0.930979        2.567290       -0.863705  
H       2.795357       -0.932383        2.073428  
H       4.265805        0.283692        3.731801  
