45
F:19-23;2-15 C:23 L:24-45; K:24,25
O      -0.045136       -1.762403        0.070045  
C       0.817867       -2.629023       -0.455344  
C       0.478569       -4.064681       -0.257454  
H       1.875008       -2.391671       -0.306043  
C      -0.842789       -4.485453       -0.041509  
C       1.515513       -5.008986       -0.300483  
C      -1.117338       -5.840929        0.137698  
H      -1.639241       -3.748822       -0.007304  
C       1.236763       -6.364412       -0.119410  
H       2.537833       -4.676984       -0.466001  
C      -0.080777       -6.782542        0.097446  
H      -2.139541       -6.165588        0.311615  
H       2.043750       -7.091416       -0.143601  
H      -0.299595       -7.837526        0.238276  
C       0.851872       -2.532752       -2.382990  
C       0.596358       -1.187527       -2.484862  
H       1.853173       -2.896046       -2.614267  
H       0.047316       -3.198371       -2.696907  
C       0.214985       -0.050729       -2.085147  
H      -0.065743        0.837615       -2.630166  
Cl      -0.146559        0.139261        2.209960  
Cl      -2.189015        0.207204       -0.309042  
Si      0.000000        0.000000        0.000000
O       1.875060       -0.000000       -0.000000  
O       0.127042        1.935326        0.000000  
C       2.817969        2.049798        0.619379  
C       2.271038        2.663665       -0.601204  
C       0.367843        3.179714       -1.933160  
C       3.066888        0.109858        1.979324  
C       3.874707        0.803808        2.865352  
C       3.631307        2.766862        1.493847  
C       4.162917        2.147586        2.624105  
C       3.072210        3.414061       -1.459448  
C       2.514881        4.053656       -2.564657  
C       1.143652        3.935594       -2.796220  
H       3.821661        3.812340        1.282298  
H       4.789455        2.709846        3.307733  
H       4.133194        3.477679       -1.248968  
H       3.141878        4.634085       -3.232229  
H       0.664677        4.416615       -3.641100  
H      -0.699165        3.036219       -2.031467  
N       2.569844        0.733328        0.886082  
N       0.930979        2.567290       -0.863705  
H       2.795357       -0.932383        2.073428  
H       4.265805        0.283692        3.731801  
