45
F:19-23;2-15 C:23 L:24-45; K:24,25
O      -1.738068        0.201510       -0.185523  
C      -2.576239       -0.488843       -0.954251  
C      -3.991997       -0.030305       -0.926794  
H      -2.446986       -1.574719       -0.928363  
C      -4.336182        1.277117       -0.549923  
C      -4.996862       -0.937219       -1.297408  
C      -5.675492        1.666429       -0.537879  
H      -3.555793        1.971278       -0.254840  
C      -6.335493       -0.544360       -1.283198  
H      -4.727776       -1.950827       -1.584719  
C      -6.677161        0.759253       -0.905774  
H      -5.940877        2.676356       -0.237270  
H      -7.110245       -1.253628       -1.560673  
H      -7.719490        1.065957       -0.893558  
C      -2.185534       -0.272961       -2.836285  
C      -0.823128       -0.165582       -2.709428  
H      -2.588457       -1.208545       -3.223440  
H      -2.725167        0.616573       -3.163352  
C       0.276782       -0.046948       -2.102182  
H       1.303101        0.011307       -2.433253  
Cl      -0.164377        0.172151        2.200241  
Cl       0.045255       -2.226355        0.017927  
Si      0.000000        0.000000        0.000000
O       1.875060       -0.000000       -0.000000  
O       0.127042        1.935326        0.000000  
C       2.817969        2.049798        0.619379  
C       2.271038        2.663665       -0.601204  
C       0.367843        3.179714       -1.933160  
C       3.066888        0.109858        1.979324  
C       3.874707        0.803808        2.865352  
C       3.631307        2.766862        1.493847  
C       4.162917        2.147586        2.624105  
C       3.072210        3.414061       -1.459448  
C       2.514881        4.053656       -2.564657  
C       1.143652        3.935594       -2.796220  
H       3.821661        3.812340        1.282298  
H       4.789455        2.709846        3.307733  
H       4.133194        3.477679       -1.248968  
H       3.141878        4.634085       -3.232229  
H       0.664677        4.416615       -3.641100  
H      -0.699165        3.036219       -2.031467  
N       2.569844        0.733328        0.886082  
N       0.930979        2.567290       -0.863705  
H       2.795357       -0.932383        2.073428  
H       4.265805        0.283692        3.731801  
