68
F:30-67;57-44;
H       5.863042        0.465234       -3.180464  
H       7.008858       -0.220498       -0.900128  
H       3.581596        5.332629        0.494416  
H       4.499014        3.459100        1.850563  
H       1.696871        4.920808       -1.082521  
H      -2.627580        5.466522       -0.982485  
H      -7.766879       -1.189220       -0.891178  
H      -3.432881        3.571195       -2.399252  
H      -6.848328        0.679677        0.493097  
H       0.042621        1.042170        3.366119  
H      -1.526392       -3.685985       -1.601693  
H       5.348558       -1.579590        0.635131  
H       1.832471       -2.149449       -1.026366  
H       3.885444       -3.472388        0.776704  
H       3.534345        1.188937        1.649721  
H       0.742468        2.638015       -1.298875  
H      -1.441376        4.990930        1.148142  
H      -6.219550       -2.893534       -1.829137  
H      -0.513316        3.399059        2.757659  
H      -3.966820       -3.799083       -2.102106  
H      -3.116419        1.244506       -1.667805  
H      -4.436449        0.882567        0.873678  
H       0.758983        0.359547       -0.822005  
H       2.315712       -0.573529        1.644199  
H       1.950379       -4.401662        3.417277  
H       3.111859       -5.129645        2.260014  
H       1.366754       -5.494893        2.157681  
O      -0.576501       -1.055625        2.012652  
O      -0.320499       -1.849086       -0.326300  
O       0.707250       -2.986706        1.575039  
S       3.788056       -0.636320       -2.490493  
C       5.412687       -0.093073       -2.368352  
C       5.988116       -0.469548       -1.173881  
C       3.159708        4.334657        0.397005  
C       3.674944        3.278427        1.163772  
C       2.103456        4.103152       -0.491948  
C      -2.474872        4.440499       -0.654414  
C      -6.694616       -1.111778       -0.724420  
C      -2.935758        3.365766       -1.453314  
C      -6.172073       -0.050358        0.052616  
C      -0.574133        1.272020        2.500827  
C      -2.208306       -2.911417       -1.258474  
C       5.100596       -1.207570       -0.354258  
C       2.690319       -2.059466       -0.365426  
C       2.881904       -3.092184        0.610487  
C       3.133450        2.002801        1.051911  
C       1.570244        2.823496       -0.618033  
C      -1.821471        4.177318        0.532134  
C      -5.835379       -2.055426       -1.249108  
C      -0.874634        2.567087        2.155867  
C      -3.553831       -2.970846       -1.528367  
C      -2.758548        2.058453       -1.045382  
C      -4.812646        0.065978        0.266732  
C       1.458135        0.452811        0.010267  
C      -1.026228        0.188591        1.703232  
C      -1.660648       -1.828880       -0.519005  
C       1.633151       -0.663687        0.795902  
C       3.853147       -1.399722       -0.929510  
C       1.886175       -3.548486        1.453354  
C       2.069942        1.750047        0.154752  
C      -1.604586        2.844014        0.969530  
C      -4.433831       -1.971671       -1.035063  
C      -2.101981        1.748622        0.178770  
C      -3.890946       -0.869582       -0.283752  
C      -1.869641        0.397231        0.607612  
C      -2.468774       -0.771871       -0.084976  
B       0.313551       -1.646761        0.992017  
C       2.106656       -4.712928        2.375626  


