57
F:19-23;2-15 C:23 L:24-57; K:1,2
O  -1.054027   -1.053575    0.244798  
C  -1.328973   -1.328198   -1.021523  
C  -2.765648   -1.248583   -1.388723  
H  -0.645125   -0.907528   -1.764059  
C  -3.773495   -1.300458   -0.413344  
C  -3.108036   -1.088488   -2.740704  
C  -5.110202   -1.182357   -0.790877  
H  -3.499171   -1.414382    0.629691  
C  -4.446948   -0.973003   -3.114615  
H  -2.323954   -1.047403   -3.493260  
C  -5.450471   -1.020624   -2.139764  
H  -5.888909   -1.211998   -0.033764  
H  -4.707867   -0.842646   -4.161107  
H  -6.493688   -0.929126   -2.429702  
C  -0.916008   -3.205224   -1.446563  
C   0.127646   -3.334495   -0.568062  
H  -0.700035   -3.138613   -2.512549  
H  -1.833305   -3.739815   -1.199042  
C   0.873600   -3.029533    0.408072  
H   1.633167   -3.567761    0.956476  
Cl  -0.511464   -1.879352    2.923775  
Cl   2.497890   -1.075044    2.146479  
Si   0.510962   -1.106494    1.092652  
O   1.309420   -0.460101   -0.524657  
O   0.301558    0.666064    1.624306  
C   1.814657    1.803401   -0.351258  
C   0.378426    2.099999   -0.201867  
C  -1.686229    1.756028    0.976652  
C   3.540858    0.186216   -0.771960  
C   4.508582    1.239302   -0.827886  
C   2.751833    2.848388   -0.415885  
C   4.084064    2.572127   -0.635826  
C  -0.240246    3.028062   -1.057595  
C  -1.585912    3.296939   -0.928280  
C  -2.339997    2.667026    0.085055  
H   2.399130    3.862243   -0.272182  
H   4.813707    3.375020   -0.668848  
H   0.360711    3.492038   -1.830123  
H  -2.074813    3.990939   -1.604690  
C  -3.727006    2.905712    0.264684  
C  -2.390469    1.135172    2.024970  
N   2.220025    0.523458   -0.515943  
N  -0.338806    1.501362    0.773048  
C   3.912423   -1.155018   -0.989058  
C   5.861071    0.896532   -1.088038  
C   6.217774   -0.418486   -1.293862  
C   5.238152   -1.441622   -1.247929  
H   3.162199   -1.932700   -0.943973  
H   6.599037    1.692058   -1.125305  
H   7.252818   -0.676687   -1.494810  
H   5.534342   -2.472743   -1.414634  
C  -4.412708    2.281902    1.283936  
C  -3.737788    1.403186    2.166296  
H  -1.877583    0.450376    2.686583  
H  -4.227144    3.589592   -0.414146  
H  -5.474197    2.465074    1.417832  
H  -4.289890    0.923449    2.968578  
