57
F:19-23;2-15 C:23 L:24-57; K:1,2
O  -0.975645   -0.993611   -0.132589  
C  -1.940716   -1.890796   -0.302249  
C  -3.116148   -1.455969   -1.103881  
H  -1.599466   -2.905382   -0.520176  
C  -3.373579   -0.105056   -1.377583  
C  -3.984971   -2.441528   -1.601575  
C  -4.488689    0.255526   -2.133334  
H  -2.692609    0.651905   -1.012211  
C  -5.098704   -2.079042   -2.357943  
H  -3.782632   -3.490448   -1.397850  
C  -5.356386   -0.728182   -2.621486  
H  -4.678521    1.304280   -2.344706  
H  -5.762833   -2.846926   -2.744446  
H  -6.224612   -0.445150   -3.210239  
C  -2.817255   -2.343124    1.380280  
C  -1.701966   -2.223076    2.166995  
H  -3.185126   -3.342373    1.150507  
H  -3.596745   -1.592401    1.511474  
C  -0.517993   -1.893147    2.462994  
H   0.041514   -1.900171    3.386642  
Cl   2.415178   -1.191474    2.050225  
Cl   0.959003   -3.229955    0.011820  
Si   0.534813   -1.179051    0.799755  
O   1.339869   -0.410179   -0.689451  
O   0.324481    0.577805    1.504704  
C   1.982429    1.790964   -0.306162  
C   0.564952    2.170332   -0.167301  
C  -1.539647    1.894817    0.952925  
C   3.626221    0.104653   -0.785215  
C   4.656923    1.096892   -0.715952  
C   2.982517    2.776719   -0.248659  
C   4.304506    2.434225   -0.435247  
C   0.042237    3.232020   -0.928100  
C  -1.271281    3.616061   -0.772132  
C  -2.092148    2.959221    0.171199  
H   2.684998    3.796488   -0.037605  
H   5.081921    3.189255   -0.372604  
H   0.692047    3.714380   -1.647952  
H  -1.685188    4.419606   -1.372701  
C  -3.454548    3.301927    0.370465  
C  -2.315377    1.224131    1.917031  
N   2.319382    0.505706   -0.553751  
N  -0.218612    1.536780    0.732711  
C   3.927454   -1.235800   -1.093422  
C   5.997628    0.692081   -0.945301  
C   6.285372   -0.622762   -1.239704  
C   5.245499   -1.582432   -1.316963  
H   3.133686   -1.969262   -1.139776  
H   6.781550    1.441009   -0.888381  
H   7.311577   -0.929310   -1.416749  
H   5.487190   -2.614338   -1.552549  
C  -4.212949    2.626480    1.302111  
C  -3.636647    1.591912    2.078918  
H  -1.869916    0.432694    2.503831  
H  -3.880267    4.101868   -0.227517  
H  -5.256378    2.887719    1.447394  
H  -4.244076    1.075772    2.815989  
