57
F:19-23;2-15 C:23 L:24-57; K:1,2
O   1.788634   -0.838233    0.284676  
C   2.452588   -1.971877    0.068028  
C   3.882710   -1.811941   -0.314234  
H   2.262644   -2.766228    0.793853  
C   4.341733   -0.675969   -0.998160  
C   4.780471   -2.839270    0.011314  
C   5.689396   -0.564115   -1.336884  
H   3.640885    0.108893   -1.262183  
C   6.129849   -2.724249   -0.327923  
H   4.420845   -3.719460    0.538892  
C   6.586342   -1.587192   -1.002790  
H   6.042989    0.318866   -1.862307  
H   6.823456   -3.517464   -0.063378  
H   7.636310   -1.497045   -1.267520  
C   1.794617   -2.928628   -1.474084  
C   0.484410   -2.539351   -1.353427  
H   2.054926   -3.952815   -1.206869  
H   2.350076   -2.529786   -2.323194  
C  -0.495443   -1.883081   -0.901979  
H  -1.528170   -1.858828   -1.214018  
Cl   0.602549    0.769332    2.331344  
Cl  -0.062885   -2.390111    2.103970  
Si   0.079459   -0.643332    0.704613  
O  -0.028855    0.687145   -0.628504  
O  -1.745263   -0.235046    1.096283  
C  -1.767068    2.189290   -0.269340  
C  -2.741332    1.115344   -0.527529  
C  -3.623383   -1.065610   -0.022948  
C   0.519183    2.921952   -0.186626  
C   0.080125    4.264504    0.042782  
C  -2.213154    3.504411   -0.043360  
C  -1.304802    4.527604    0.118888  
C  -3.789082    1.339069   -1.440593  
C  -4.744105    0.371895   -1.660970  
C  -4.686623   -0.850681   -0.957359  
H  -3.280056    3.680224    0.014767  
H  -1.646416    5.540580    0.306156  
H  -3.808018    2.282343   -1.972343  
H  -5.543634    0.542119   -2.374921  
C  -5.646333   -1.880527   -1.132558  
C  -3.532862   -2.263120    0.713042  
N  -0.442341    1.934091   -0.329937  
N  -2.675409   -0.058965    0.144429  
C   1.889218    2.608140   -0.271489  
C   1.063277    5.278221    0.183417  
C   2.402292    4.964141    0.095081  
C   2.811322    3.625997   -0.131756  
H   2.190902    1.580667   -0.417834  
H   0.734634    6.298086    0.358853  
H   3.151708    5.742061    0.202570  
H   3.870224    3.392931   -0.188680  
C  -5.549269   -3.052077   -0.412599  
C  -4.491455   -3.238323    0.510277  
H  -2.718744   -2.405123    1.412206  
H  -6.454049   -1.721852   -1.840437  
H  -6.286420   -3.837128   -0.548805  
H  -4.428422   -4.165286    1.071858  
