75
mapping.S.ts4 optimized geometry
 C                  1.53194900   -0.08008000    3.10543000
 C                  2.17468100    0.67891000    2.13371900
 C                  1.52034700    1.76499100    1.52086200
 C                  0.20049500    2.10296400    1.89656100
 C                 -0.42264200    1.33923500    2.88791000
 C                  0.22756100    0.25556500    3.48474800
 H                  3.21876900    2.24184800    0.25719600
 H                  2.03519300   -0.92953800    3.55699200
 H                  3.18540700    0.43180500    1.82096200
 C                  2.19486600    2.52417800    0.48887200
 C                 -0.53170900    3.27548600    1.24840100
 H                 -1.43304600    1.58545800    3.19971900
 H                 -0.28732800   -0.32970500    4.24172100
 C                  0.24037800    3.95929500    0.08838300
 C                  1.60901500    3.54094800   -0.18927900
 O                 -0.29390500    4.86968800   -0.54869300
 H                 -3.08253100    0.83431400    0.03361000
 C                 -1.93041400    2.82554800    0.71828700
 C                 -1.87319500    1.63094000   -0.21493100
 H                 -2.53997900    2.58331900    1.59577100
 H                 -2.40179800    3.67522100    0.21993000
 H                 -1.09229300    0.91527600    0.02072600
 N                 -1.91724900    1.86069600   -1.60045700
 O                 -1.42269200    0.95850700   -2.37805000
 O                 -2.51217100    2.83869600   -2.08564200
 H                 -0.69396993    4.01264677    2.00679760
 H                  2.13843600    4.07684300   -0.97235700
 C                 -1.03215000   -1.79447800   -0.34138500
 N                  0.01407600   -1.09101300   -0.90366900
 N                 -2.21745500   -1.42697700   -0.89194500
 H                 -2.18904300   -0.73822000   -1.64321400
 H                 -0.29273600   -0.33928700   -1.53394600
 C                  1.40018400   -1.15224000   -0.75787500
 C                  2.10379300   -2.07869100    0.02362200
 C                  2.12751100   -0.18834300   -1.48865800
 C                  3.49935200   -2.02369700    0.07160400
 H                  1.56302100   -2.82227900    0.59104000
 C                  3.51365700   -0.15433400   -1.42437700
 H                  1.59339500    0.53261800   -2.09834800
 C                  4.22324000   -1.06884700   -0.63702000
 H                  5.30457100   -1.03387400   -0.58626900
 C                 -3.52954000   -1.95678300   -0.56229300
 C                 -4.57065700   -0.82272300   -0.51269600
 C                 -3.94909100   -3.02945400   -1.58693700
 H                 -3.45968900   -2.43096100    0.41953300
 C                 -5.95871100   -1.39879200   -0.18017500
 C                 -5.33596800   -3.59818400   -1.26713500
 H                 -3.95281900   -2.57631400   -2.58758100
 H                 -3.18581700   -3.81446500   -1.57815000
 C                 -6.37151000   -2.47002000   -1.20361900
 H                 -6.70214700   -0.59711900   -0.16864700
 H                 -5.93245900   -1.84727800    0.82038600
 H                 -5.61940300   -4.33759300   -2.02474200
 H                 -5.30158300   -4.11693200   -0.29891900
 H                 -7.35823600   -2.86264000   -0.93361100
 H                 -6.46507600   -2.00387000   -2.19428800
 C                  4.30203000    0.86706800   -2.21048100
 C                  4.21373700   -2.99678000    0.98203900
 F                  5.13911100    1.58388000   -1.39864200
 F                  3.52082200    1.76491400   -2.86047200
 F                  5.09629300    0.27355100   -3.14842000
 F                  4.13770900   -2.59657000    2.29008200
 F                  3.67365000   -4.24547100    0.92972200
 F                  5.53511600   -3.12164500    0.69012300
 H                 -4.61458000   -0.34221800   -1.49780900
 N                 -4.15076700    0.28594700    0.42979100
 C                 -3.85693000   -0.16956600    1.81353400
 C                 -5.11947800    1.41549500    0.42516500
 H                 -3.61532400    0.71039500    2.41233300
 H                 -4.72517800   -0.67497100    2.24544100
 H                 -2.99671300   -0.84194500    1.79598800
 H                 -6.04188800    1.13769200    0.94147200
 H                 -4.65367200    2.26044300    0.93479600
 H                 -5.33487700    1.68874700   -0.61021500
 S                 -0.91673000   -2.94137900    0.90017900
