45
F:19-23;2-15 C:23 L:24-45; K:1,2
O       0.032881       -1.758193        0.061844  
C      -0.788772       -2.575487        0.718603  
C      -0.609693       -4.023404        0.425877  
H      -0.935738       -2.336919        1.775856  
C      -0.041654       -4.463845       -0.779848  
C      -1.035723       -4.958982        1.381237  
C       0.107470       -5.829899       -1.017661  
H       0.282630       -3.733381       -1.514286  
C      -0.883764       -6.324730        1.139962  
H      -1.477751       -4.613038        2.312583  
C      -0.313534       -6.762464       -0.060914  
H       0.552375       -6.169911       -1.948853  
H      -1.206510       -7.045588        1.885949  
H      -0.196077       -7.825946       -0.250530  
C      -2.635931       -2.351183        0.200449  
C      -2.588649       -0.994751       -0.002767  
H      -2.774998       -2.976366       -0.682219  
H      -3.131344       -2.721491        1.097800  
C      -2.047835        0.135147       -0.172849  
H      -2.430880        1.116120       -0.413406  
Cl      -0.166098        0.221726        2.258195  
Cl       0.136454       -0.078685       -2.266565  
Si      0.000000        0.000000        0.000000
O       1.875060       -0.000000       -0.000000  
O       0.127042        1.935326        0.000000  
C       2.817969        2.049798        0.619379  
C       2.271038        2.663665       -0.601204  
C       0.367843        3.179714       -1.933160  
C       3.066888        0.109858        1.979324  
C       3.874707        0.803808        2.865352  
C       3.631307        2.766862        1.493847  
C       4.162917        2.147586        2.624105  
C       3.072210        3.414061       -1.459448  
C       2.514881        4.053656       -2.564657  
C       1.143652        3.935594       -2.796220  
H       3.821661        3.812340        1.282298  
H       4.789455        2.709846        3.307733  
H       4.133194        3.477679       -1.248968  
H       3.141878        4.634085       -3.232229  
H       0.664677        4.416615       -3.641100  
H      -0.699165        3.036219       -2.031467  
N       2.569844        0.733328        0.886082  
N       0.930979        2.567290       -0.863705  
H       2.795357       -0.932383        2.073428  
H       4.265805        0.283692        3.731801  
