75
mapping.R.ts3 optimized geometry
 C                  3.58606200   -1.41351600   -2.09996800
 C                  2.44559600   -1.30935200   -2.88965100
 C                  1.21490000   -1.82927000   -2.44438200
 C                  1.11997100   -2.44752600   -1.17380700
 C                  2.27686400   -2.54495200   -0.39681700
 C                  3.49967400   -2.04546300   -0.85599800
 H                  0.17033000   -1.28119700   -4.26920200
 H                  4.53194600   -1.00705000   -2.44574400
 H                  2.49082400   -0.82911000   -3.86410800
 C                  0.05460200   -1.77640900   -3.30644700
 C                 -0.24003100   -2.87477900   -0.62836000
 H                  2.23577400   -3.00394400    0.58477900
 H                  4.38274200   -2.14001200   -0.23156800
 C                 -1.31748300   -3.06015600   -1.72339000
 C                 -1.12819300   -2.35876100   -2.98784300
 O                 -2.34925300   -3.70373200   -1.49880400
 H                 -3.08350200   -0.98964000    0.32870100
 C                 -0.72419700   -1.61622100    0.20299700
 C                 -2.04579500   -1.80062600    0.92869200
 H                 -0.74962000   -0.76473000   -0.48373500
 H                  0.06661900   -1.41184600    0.92979700
 H                 -2.52914000   -2.76612000    0.80241600
 N                 -2.10468300   -1.43491500    2.28570400
 O                 -3.01950300   -1.89418800    3.00575600
 O                 -1.29733700   -0.56165600    2.75788200
 H                 -0.18242525   -3.73877486    0.00020402
 H                 -1.95996200   -2.36610400   -3.68674100
 C                 -1.07531100    1.72653800    0.15163300
 N                 -0.04309900    1.31529300    0.96856800
 N                 -2.28371700    1.47358800    0.72692800
 H                 -2.28070500    1.17186900    1.69536500
 H                 -0.35761200    0.68020400    1.71249800
 C                  1.34199900    1.27725100    0.78741900
 C                  2.04848600    0.42084400    1.65549300
 C                  2.06460700    2.03559100   -0.14459900
 C                  3.43207400    0.31839200    1.57757500
 H                  1.50130500   -0.16796100    2.38490900
 C                  3.45476700    1.90852700   -0.20940900
 H                  1.54580400    2.70640900   -0.81416800
 C                  4.15790500    1.05871900    0.64083500
 H                  5.23353900    0.96415100    0.57253700
 C                 -3.58696800    1.87609200    0.21984600
 C                 -4.61167600    0.73380500    0.37137200
 C                 -4.07813600    3.13845800    0.95472100
 H                 -3.46714800    2.11471800   -0.83875500
 C                 -5.98206000    1.18981000   -0.16077200
 C                 -5.44992700    3.58812600    0.44014600
 H                 -4.13786600    2.91597700    2.02919600
 H                 -3.32606800    3.92255500    0.81700800
 C                 -6.46858700    2.45009600    0.57299100
 H                 -6.71420700    0.38725900   -0.03862500
 H                 -5.89763900    1.40644000   -1.23258600
 H                 -5.78437600    4.47175100    0.99549700
 H                 -5.36248000    3.87741800   -0.61623900
 H                 -7.44163600    2.75071200    0.16857400
 H                 -6.61420400    2.21401000    1.63630900
 C                  4.17368300    2.71043400   -1.27014100
 C                  4.15510000   -0.58132400    2.55157500
 F                  3.87682300    4.04052900   -1.18879500
 F                  3.81193600    2.31303400   -2.52718500
 F                  5.52581000    2.60113700   -1.19767200
 F                  4.42212900    0.06334800    3.72712900
 F                  3.42852400   -1.68821400    2.87389600
 F                  5.34983000   -1.01950400    2.06802000
 H                 -4.71100700    0.48863000    1.43599200
 N                 -4.12851600   -0.54338100   -0.27136900
 C                 -3.77600600   -0.41635800   -1.70862800
 C                 -5.07828300   -1.67057200   -0.06730700
 H                 -2.95091700    0.28904900   -1.82446900
 H                 -3.46616800   -1.40170900   -2.05854300
 H                 -4.64353400   -0.08286600   -2.28650700
 H                 -5.97315400   -1.53845000   -0.68098100
 H                 -4.56489200   -2.58907100   -0.35967100
 H                 -5.34470000   -1.71775100    0.99079600
 S                 -0.91911500    2.39704100   -1.39439700
