91
F:20-27;
 C                 -4.22137300    0.26879800    1.42989800
 C                 -2.92551100    0.77660700    1.34108200
 C                 -2.54983800    1.54812700    0.23428000
 C                 -3.49287900    1.80200700   -0.77112300
 C                 -4.79039100    1.29588700   -0.66533400
 C                 -5.17468500    0.52898400    0.43839500
 H                 -2.21183600    0.50257300    2.11173200
 H                 -3.22541900    2.38422600   -1.64861300
 H                 -6.17380500    0.12011500    0.51022500
 C                 -1.19693000    2.09038800    0.02162500
 H                 -1.03751900    2.44807100   -0.99512700
 H                 -5.50021271    1.49803727   -1.44005227
 H                 -4.49238188   -0.33181374    2.27293994
 C                 -0.91996500    3.21291000    2.33488300
 H                 -1.60062500    4.05850100    2.18450700
 H                 -1.48431700    2.41866100    2.81908800
 H                 -0.11609700    3.52400700    3.00589400
 N                  0.52789200    3.74483700    0.43579300
 H                  0.44458800    4.69818400    0.76348300
 C                 -0.38590500    2.77293200    0.99796500
 C                  1.41391800    3.45660900   -0.53899600
 O                  1.60289200    2.27698600   -0.90791200
 C                  2.16751000    4.58531600   -1.15899600
 H                  1.82026000    4.71836500   -2.18691000
 H                  2.04165300    5.52839400   -0.62652400
 H                  3.22745800    4.32943200   -1.20614000
 H                  0.75753800    1.79864300    1.69101900
 H                 -0.24773900   -0.11552600    1.44933100
 Rh                 0.51553200    0.77706400    0.43967900
 P                  2.36036100   -0.48787400    0.98976700
 C                  2.30278900   -2.19290400    0.19182100
 O                  3.44505200   -2.31850800   -0.67569200
 H                  2.38271200   -2.97534400    0.95619600
 P                  0.03404400   -0.93771700   -1.09542300
 C                  1.03364000   -2.45815600   -0.60640900
 O                  0.15854500   -3.24699800    0.22106100
 H                  1.29549600   -3.04641900   -1.49889800
 C                  0.31745100   -0.66804200   -2.92540200
 C                  2.84920800   -0.79030000    2.77326700
 C                 -0.15840300   -1.86104900   -3.74897500
 C                 -0.45092400    0.59624500   -3.31626400
 C                  1.81986800   -0.44169900   -3.10819800
 C                  4.10974600   -1.65336300    2.84111500
 C                  3.11785300    0.56707200    3.42179700
 C                  1.67597400   -1.48635300    3.46303600
 C                 -1.47159700   -1.88886600   -0.82920200
 C                 -1.16034200   -3.02456600   -0.07109100
 C                 -2.14896400   -3.88352900    0.39578100
 H                 -1.88265700   -4.75648200    0.98232900
 C                 -2.80338100   -1.60993700   -1.13466500
 C                 -3.80386800   -2.47006200   -0.68927000
 H                 -4.84161800   -2.25731700   -0.93012100
 C                 -3.47463000   -3.58939800    0.07905300
 H                 -4.26097300   -4.24931600    0.43515400
 H                 -3.06197100   -0.72573600   -1.71119200
 C                  3.84869200   -0.10363900    0.06439400
 C                  4.21998000   -1.19714600   -0.72412500
 C                  5.33425300   -1.14715300   -1.55724000
 C                  4.58577300    1.08146200   -0.00292500
 C                  5.70279500    1.14652000   -0.82994800
 H                  6.28666200    2.05983600   -0.88362700
 C                  6.06892900    0.03457500   -1.59692000
 H                  5.60484700   -2.00780600   -2.15996400
 H                  6.93895500    0.09174100   -2.24450500
 H                  4.28020200    1.94470200    0.58353000
 H                  1.43791800   -2.45370700    3.00550200
 H                  1.92982800   -1.67313300    4.51184900
 H                  0.77103600   -0.87008900    3.44104300
 H                  2.23799900    1.21787200    3.38228100
 H                  3.37880100    0.41961100    4.47525900
 H                  3.95555400    1.08825500    2.94533200
 H                  4.95907700   -1.17354700    2.34487600
 H                  4.38114700   -1.80689100    3.89110400
 H                  3.96982700   -2.64483200    2.39869200
 H                  2.39720100   -1.34941300   -2.89984700
 H                  2.02124400   -0.15840700   -4.14709500
 H                  2.18901100    0.36534000   -2.46375900
 H                 -0.08337500    1.46780900   -2.76431500
 H                 -0.31037000    0.78914300   -4.38551700
 H                 -1.52847200    0.50044200   -3.13880700
 H                 -1.23720500   -2.01821400   -3.65685900
 H                  0.06515700   -1.67635200   -4.80575600
 H                  0.34573200   -2.79130900   -3.46714900
