91
F:12-27;
 C                 -5.60313300   -1.05267000    0.34872900
 C                 -4.39910600   -1.18183500    1.04724000
 C                 -3.29883600   -0.39410200    0.69584800
 C                 -3.40186500    0.50351300   -0.36937100
 C                 -4.60688400    0.61816000   -1.06494400
 C                 -5.72160800   -0.15350300   -0.71513700
 H                 -4.33953800   -1.89476900    1.86410500
 H                 -2.55652400    1.10303200   -0.69278000
 H                 -6.65000700   -0.06446300   -1.26408400
 H                 -4.67986200    1.30787809   -1.87972199
 H                 -6.44474711   -1.64962944    0.63196939
 C                 -2.08490000   -0.56355100    1.53313800
 H                 -2.09934500   -1.48742700    2.11140200
 C                 -1.84714000    1.93138900    2.17972600
 H                 -1.03691700    2.61108400    2.45603100
 H                 -2.23728600    2.22933800    1.20740900
 H                 -2.65622300    2.06746500    2.91085900
 N                 -0.76393400    0.13905000    3.43888000
 H                 -1.13807600    0.55681700    4.28268100
 C                 -1.37833800    0.50730100    2.18148800
 C                  0.17657700   -0.81609700    3.54922800
 O                  0.68919300   -1.33021500    2.52720100
 C                  0.62524300   -1.21398600    4.91518700
 H                  1.70166800   -1.04550100    5.00140600
 H                  0.11256500   -0.67047800    5.70889900
 H                  0.45710400   -2.28426100    5.05259400
 H                 -1.11660900   -1.46928100    0.38097100
 H                 -0.64036200    0.45480300   -0.58802400
 Rh                -0.04604700   -0.29129800    0.62931400
 P                  1.60379800    1.42053500    0.41874900
 C                  2.83338600    0.94804800   -0.92036500
 O                  3.07893100    2.11071700   -1.73258500
 H                  3.78885100    0.68802600   -0.44972700
 P                  1.19500700   -1.37528900   -0.99326700
 C                  2.42206600   -0.22813300   -1.81347900
 O                  3.59154000   -1.01054300   -2.12950700
 H                  2.03096200    0.16203600   -2.75946400
 C                  0.25161600   -2.21042500   -2.39035200
 C                  2.73159000    1.97006500    1.82766600
 C                  1.20767800   -2.62757900   -3.50903200
 C                 -0.43323500   -3.44586600   -1.80676200
 C                 -0.79662600   -1.23186700   -2.91883400
 C                  3.77201000    2.97882900    1.34478600
 C                  1.83655500    2.61386900    2.88494800
 C                  3.41737700    0.72303500    2.38804900
 C                  2.55535600   -2.48220900   -0.58806000
 C                  3.69101400   -2.10882700   -1.32106500
 C                  4.86790300   -2.84918400   -1.26213000
 H                  5.73350100   -2.54689100   -1.84207500
 C                  2.60065100   -3.60939600    0.23520200
 C                  3.77404600   -4.35529800    0.30686300
 H                  3.82037500   -5.23172400    0.94501000
 C                  4.89268200   -3.97452400   -0.44162900
 H                  5.80437800   -4.56160900   -0.38085200
 H                  1.72638900   -3.90071300    0.81141000
 C                  1.22439300    2.92407700   -0.50174400
 C                  2.13496400    3.07893500   -1.55489800
 C                  2.10188900    4.19319200   -2.38865000
 C                  0.24353600    3.89653800   -0.29341100
 C                  0.19363300    5.01316900   -1.12432800
 H                 -0.56676000    5.77108700   -0.96715200
 C                  1.12233000    5.15556500   -2.15994500
 H                  2.82212300    4.29279900   -3.19396500
 H                  1.07948000    6.02827800   -2.80485500
 H                 -0.47465800    3.78486800    0.51485000
 H                  2.69859900   -0.04638900    2.68431600
 H                  4.11055100    0.27180800    1.66918600
 H                  4.00622700    0.99973500    3.26952700
 H                  1.08678000    1.91279300    3.26609600
 H                  2.44625700    2.94428100    3.73297600
 H                  1.31834200    3.49676300    2.49169000
 H                  3.31014800    3.88582200    0.94138500
 H                  4.39811000    3.27504000    2.19397400
 H                  4.43754600    2.56371100    0.58090900
 H                 -0.35449100   -0.29082200   -3.26698700
 H                 -1.31439400   -1.68617700   -3.77036700
 H                 -1.54719100   -0.99236800   -2.15756100
 H                 -1.02131200   -3.93445300   -2.59074700
 H                  0.29043900   -4.17750100   -1.43182100
 H                 -1.12023400   -3.18662800   -0.99300000
 H                  1.99402200   -3.29790500   -3.14755900
 H                  0.64094900   -3.16585800   -4.27619600
 H                  1.68223800   -1.77032200   -3.99586000
