68
F:30-67;57-44;
H      -6.018865        2.375027       -2.080770  
H      -7.075358        0.143994       -1.136750  
H      -5.685205        2.146639        4.092773  
H      -4.113591        3.228130        2.496268  
H      -5.696715       -0.330129        4.346685  
H       8.064031       -1.468791       -0.129985  
H       3.732905        5.722954        0.507444  
H       7.034037        0.405123       -1.425525  
H       4.725071        3.843094        1.822638  
H       1.946321       -3.200908        2.168286  
H      -0.352610        1.340673       -2.620626  
H      -5.242504       -1.724474       -0.812784  
H      -1.689603       -0.585367       -2.041442  
H      -3.453967       -3.005169       -1.849951  
H      -2.561474        1.856854        1.155380  
H      -4.143418       -1.718160        2.990363  
H       6.622988       -2.926684        1.274396  
H       1.961246        5.249257       -1.168402  
H       4.416837       -3.554689        2.122652  
H       0.491887        3.667288       -2.324771  
H       4.627818        0.857774       -1.266129  
H       4.011934        1.526393        1.421587  
H      -2.551823       -1.960632        1.333349  
H      -1.462798        0.548714       -0.032756  
H      -1.402187       -5.216045       -0.224778  
H      -2.442649       -5.132593       -1.681714  
H      -0.662134       -5.124364       -1.827146  
O       0.657607       -1.312141        1.013161  
O       0.505088       -0.761250       -1.393627  
O      -0.404812       -2.803687       -0.547045  
S      -3.805566        1.330081       -2.113655  
C      -5.497495        1.451910       -1.857440  
C      -6.022777        0.274152       -1.369495  
C      -5.005436        1.535871        3.502927  
C      -4.119009        2.145865        2.602045  
C      -5.012213        0.142806        3.646460  
C       6.994952       -1.280668       -0.056818  
C       3.403408        4.701704        0.328239  
C       6.411179       -0.215185       -0.783979  
C       3.969929        3.634590        1.067372  
C       2.602366       -2.528852        1.620481  
C       0.464066        1.557672       -1.935761  
C      -5.040573       -0.732267       -1.204424  
C      -2.512890       -1.059567       -1.503457  
C      -2.534023       -2.503053       -1.567325  
C      -3.245306        1.374228        1.846841  
C      -4.141926       -0.634398        2.888859  
C       6.195761       -2.087636        0.726714  
C       2.422335        4.438758       -0.605425  
C       3.963290       -2.721516        1.587916  
C       0.932124        2.840657       -1.769315  
C       5.057342        0.041572       -0.694761  
C       3.570809        2.332079        0.844058  
C      -2.411076       -0.889380        1.166442  
C       2.010730       -1.439354        0.930466  
C       1.042981        0.477820       -1.220594  
C      -1.564886       -0.525537        0.138353  
C      -3.771338       -0.326198       -1.579047  
C      -1.485795       -3.278413       -1.137165  
C      -3.243799       -0.037958        1.968900  
C       4.797139       -1.859729        0.827635  
C       1.976917        3.111201       -0.847054  
C       4.204897       -0.749730        0.126422  
C       2.580496        2.017574       -0.129220  
C       2.793251       -0.507203        0.243768  
C       2.142570        0.672873       -0.380913  
B      -0.148585       -1.362363       -0.209076  
C      -1.513213       -4.777483       -1.225763  


