68
F:30-67;57-44;
H      -6.682114        1.029042       -1.981838  
H      -7.225741       -0.908424       -0.268495  
H      -5.437180        3.313129        3.407435  
H      -5.271528        0.858696        3.771055  
H      -3.985330        4.425024        1.717582  
H       7.983905       -1.525545       -0.322734  
H       3.816649        5.715118       -0.259811  
H       6.871214        0.193991       -1.756654  
H       4.821879        3.991927        1.246384  
H       2.036554       -2.911235        2.578060  
H      -0.514308        1.086786       -2.604836  
H      -5.082583       -2.363413        0.244260  
H      -1.906119       -1.178478       -1.743210  
H      -3.345897       -3.679013       -0.858277  
H      -3.664834       -0.487259        2.462388  
H      -2.377780        3.071831        0.387573  
H       6.640377       -2.791157        1.340683  
H       1.960434        5.080616       -1.785011  
H       4.499652       -3.291648        2.406774  
H       0.414436        3.399120       -2.676708  
H       4.484900        0.691307       -1.484188  
H       4.035055        1.665722        1.181947  
H      -1.497840        1.047583       -0.275593  
H      -2.183734       -1.460369        1.341072  
H      -0.838348       -5.350159        0.763207  
H      -2.037710       -5.635053       -0.538870  
H      -0.300989       -5.455335       -0.917409  
O       0.676132       -1.153273        1.287120  
O       0.313596       -0.844854       -1.143579  
O      -0.212214       -2.929240       -0.085152  
S      -4.346658        0.291943       -2.094981  
C      -5.991781        0.291122       -1.591039  
C      -6.248513       -0.731999       -0.707759  
C      -4.729021        2.725507        2.827487  
C      -4.634343        1.341387        3.033658  
C      -3.912491        3.351756        1.876598  
C       6.923270       -1.317644       -0.198231  
C       3.454761        4.689597       -0.290018  
C       6.293264       -0.338730       -1.004003  
C       4.028156        3.710579        0.557220  
C       2.655681       -2.314137        1.913188  
C       0.340320        1.368093       -1.993088  
C      -5.099732       -1.520888       -0.440394  
C      -2.610874       -1.626781       -1.043879  
C      -2.463781       -3.047582       -0.819933  
C      -3.729812        0.584133        2.298921  
C      -3.012067        2.596563        1.133333  
C       6.178553       -2.017284        0.728896  
C       2.426326        4.336876       -1.139798  
C       4.010946       -2.522301        1.810889  
C       0.851536        2.643691       -2.025600  
C       4.950120       -0.056870       -0.851234  
C       3.587367        2.402578        0.523143  
C      -1.979981        0.460986        0.507135  
C       2.022504       -1.305586        1.143623  
C       0.909114        0.374635       -1.150497  
C      -1.706927       -0.896254        0.534477  
C      -3.975107       -1.101639       -1.127927  
C      -1.275399       -3.621391       -0.422375  
C      -2.899716        1.197526        1.328905  
C       4.791132       -1.763087        0.899111  
C       1.938815        3.003551       -1.186237  
C       4.154880       -0.735532        0.115188  
C       2.544867        1.994712       -0.356300  
C       2.754728       -0.466177        0.302098  
C       2.065258        0.640426       -0.408974  
B      -0.170804       -1.424695        0.128754  
C      -1.117481       -5.106754       -0.270911  


