69
F:19-23;2-15 C:23 L:24-69; K:1,2
O  -1.128162   -1.315924    0.216195  
C  -1.440900   -1.438375   -1.064910  
C  -2.890500   -1.352920   -1.375910  
H  -0.786876   -0.921091   -1.772846  
C  -3.864793   -1.704181   -0.427859  
C  -3.281428   -0.908329   -2.647838  
C  -5.216299   -1.604059   -0.752910  
H  -3.554005   -2.048362    0.553539  
C  -4.636143   -0.806591   -2.968163  
H  -2.524040   -0.634028   -3.378376  
C  -5.605165   -1.157278   -2.022388  
H  -5.969273   -1.869250   -0.016175  
H  -4.935010   -0.450738   -3.950035  
H  -6.659891   -1.077427   -2.270224  
C  -1.027152   -3.249523   -1.739988  
C   0.011985   -3.493861   -0.882611  
H  -0.808438   -3.043510   -2.787535  
H  -1.947567   -3.806804   -1.566447  
C   0.762645   -3.320786    0.121721  
H   1.515644   -3.934402    0.594967  
Cl  -0.531798   -2.376116    2.788403  
Cl   2.494104   -1.606340    1.989318  
Si   0.464950   -1.476786    1.009811  
O   1.249462   -0.678045   -0.549330  
O   0.312999    0.237406    1.717159  
C   1.730244    1.596219   -0.189961  
C   0.305040    1.862827    0.036043  
C  -1.683907    1.320450    1.233084  
C   3.444092    0.014123   -0.655927  
C   4.438067    0.993422   -0.653639  
C   2.683603    2.606451   -0.198651  
C   4.026953    2.312360   -0.426224  
C  -0.394854    2.853432   -0.649965  
C  -1.745829    3.054998   -0.398938  
C  -2.428833    2.273452    0.548298  
H   2.361849    3.622175   -0.000583  
H   4.749914    3.118704   -0.412955  
H   0.130706    3.437624   -1.396215  
H  -2.279993    3.816645   -0.955583  
C  -3.923096    2.459357    0.795562  
H  -2.075590    0.661227    1.993089  
N   2.147432    0.317365   -0.443443  
N  -0.367350    1.144214    0.976152  
H   3.629779   -1.035421   -0.831148  
C   5.886908    0.565635   -0.884751  
C   5.995247   -0.131156   -2.261779  
C   6.847561    1.765467   -0.855385  
C   6.293709   -0.429229    0.229036  
H   5.705624    0.553213   -3.067290  
H   7.033267   -0.442572   -2.421916  
H   5.360309   -1.022351   -2.312257  
H   7.867168    1.403102   -1.019709  
H   6.609725    2.488880   -1.643813  
H   6.817793    2.275863    0.114114  
H   5.651341   -1.316045    0.230489  
H   7.326544   -0.751726    0.057016  
H   6.232476    0.045554    1.214351  
C  -4.667515    2.225798   -0.540481  
C  -4.468657    1.474855    1.843514  
C  -4.167650    3.906174    1.283405  
H  -4.500124    1.207723   -0.904930  
H  -5.741531    2.367079   -0.376544  
H  -4.342458    2.935565   -1.308905  
H  -3.818616    4.639882    0.548709  
H  -5.242779    4.054326    1.432708  
H  -3.653580    4.088001    2.233995  
H  -4.331374    0.436937    1.521053  
H  -3.983374    1.613755    2.816613  
H  -5.541084    1.653290    1.968783  
