69
F:19-23;2-15 C:23 L:24-69; K:1,2
O   1.805750   -1.392843    0.329400  
C   2.226908   -2.642256    0.147736  
C   3.634435   -2.774292   -0.322332  
H   1.940807   -3.348942    0.931444  
C   4.281689   -1.734118   -1.006723  
C   4.313174   -3.978061   -0.079323  
C   5.598650   -1.898024   -1.435499  
H   3.751418   -0.804782   -1.189437  
C   5.631094   -4.138314   -0.509315  
H   3.810256   -4.781342    0.454108  
C   6.275460   -3.099506   -1.190193  
H   6.100630   -1.088908   -1.959138  
H   6.155593   -5.068731   -0.310377  
H   7.301719   -3.223568   -1.525058  
C   1.301796   -3.526179   -1.290744  
C   0.094191   -2.897242   -1.114729  
H   1.388966   -4.568689   -0.984613  
H   1.857057   -3.276393   -2.195333  
C  -0.714381   -2.047440   -0.648382  
H  -1.744443   -1.847653   -0.901145  
Cl   1.134289    0.573439    2.273350  
Cl  -0.185748   -2.402054    2.358492  
Si   0.207689   -0.832582    0.819172  
O   0.267966    0.393262   -0.617529  
O  -1.459344   -0.031116    1.287660  
C  -1.170132    2.223150   -0.327342  
C  -2.329324    1.328555   -0.425397  
C  -3.500643   -0.585341    0.373014  
C   1.193447    2.489499   -0.330307  
C   1.103856    3.875421   -0.200379  
C  -1.308074    3.601577   -0.207308  
C  -0.184075    4.423045   -0.144452  
C  -3.401656    1.601524   -1.269166  
C  -4.517529    0.768727   -1.300553  
C  -4.587848   -0.357599   -0.469240  
H  -2.306934    4.017097   -0.143499  
H  -0.320922    5.492477   -0.041637  
H  -3.338882    2.470095   -1.914340  
H  -5.327934    1.003100   -1.980014  
C  -5.758098   -1.340003   -0.435076  
H  -3.442354   -1.405599    1.075078  
N   0.094258    1.713790   -0.402274  
N  -2.417562    0.224835    0.380306  
H   2.124908    1.945584   -0.390768  
C   2.394400    4.688568   -0.112541  
C   3.249868    4.424920   -1.374566  
C   2.111731    6.196833   -0.011249  
C   3.176366    4.237072    1.144842  
H   2.712571    4.732161   -2.278838  
H   4.176545    5.004844   -1.302741  
H   3.517622    3.366764   -1.467480  
H   3.066173    6.729810    0.042780  
H   1.564742    6.560405   -0.888902  
H   1.534648    6.436869    0.889062  
H   3.431032    3.172822    1.098583  
H   4.106291    4.812544    1.209624  
H   2.587940    4.414569    2.051797  
C  -6.857252   -0.949786   -1.436711  
C  -5.233761   -2.752459   -0.791059  
C  -6.360433   -1.357379    0.990077  
H  -6.477744   -0.942761   -2.465014  
H  -7.664890   -1.685696   -1.375123  
H  -7.275200    0.036908   -1.206651  
H  -6.740172   -0.366439    1.262630  
H  -7.191128   -2.071047    1.015487  
H  -5.620675   -1.667209    1.736188  
H  -4.784993   -2.759975   -1.790871  
H  -4.487558   -3.099515   -0.068021  
H  -6.072935   -3.456340   -0.778455  
