45
F:19-23;2-15; C:23; L:24-45; K:24,25
O       0.182735       -0.017718       -1.775880  
C      -0.494398       -0.757736       -2.646820  
C      -0.154045       -0.562574       -4.081615  
H      -0.645401       -1.800366       -2.356780  
C       0.640787        0.508232       -4.516341  
C      -0.628780       -1.496726       -5.017537  
C       0.945478        0.649409       -5.870451  
H       1.035335        1.207659       -3.790105  
C      -0.322653       -1.354269       -6.369880  
H      -1.234541       -2.334752       -4.681657  
C       0.460608       -0.276418       -6.801063  
H       1.568645        1.476815       -6.199075  
H      -0.689843       -2.083275       -7.086670  
H       0.699217       -0.165096       -7.855179  
C      -2.393703       -0.295094       -2.665996  
C      -2.481348       -0.022754       -1.326322  
H      -2.479553        0.546656       -3.353653  
H      -2.821216       -1.226888       -3.034196  
C      -2.065123        0.204706       -0.153591  
H      -2.565579        0.504127        0.755816  
Cl      -0.169598        0.251398        2.242196  
Cl      -0.036730       -2.217695        0.182872  
Si      0.000000        0.000000        0.000000
O       1.875060       -0.000000       -0.000000  
O       0.127042        1.935326        0.000000  
C       2.817969        2.049798        0.619379  
C       2.271038        2.663665       -0.601204  
C       0.367843        3.179714       -1.933160  
C       3.066888        0.109858        1.979324  
C       3.874707        0.803808        2.865352  
C       3.631307        2.766862        1.493847  
C       4.162917        2.147586        2.624105  
C       3.072210        3.414061       -1.459448  
C       2.514881        4.053656       -2.564657  
C       1.143652        3.935594       -2.796220  
H       3.821661        3.812340        1.282298  
H       4.789455        2.709846        3.307733  
H       4.133194        3.477679       -1.248968  
H       3.141878        4.634085       -3.232229  
H       0.664677        4.416615       -3.641100  
H      -0.699165        3.036219       -2.031467  
N       2.569844        0.733328        0.886082  
N       0.930979        2.567290       -0.863705  
H       2.795357       -0.932383        2.073428  
H       4.265805        0.283692        3.731801  
