45
F:19-23;2-15; C:23; L:24-45; K:24,25
O      -1.751514        0.092809       -0.165338  
C      -2.480054        0.902337       -0.922624  
C      -3.946884        0.656933       -0.900870  
H      -2.198166        1.958944       -0.887487  
C      -4.474067       -0.595774       -0.550036  
C      -4.809602        1.705217       -1.256169  
C      -5.854809       -0.790071       -0.548775  
H      -3.800520       -1.400817       -0.274233  
C      -6.190666        1.506441       -1.252772  
H      -4.397261        2.675032       -1.525398  
C      -6.715216        0.257546       -0.901545  
H      -6.262559       -1.758023       -0.270792  
H      -6.855806        2.322886       -1.519689  
H      -7.790499        0.101363       -0.899227  
C      -2.122986        0.632944       -2.819822  
C      -0.795906        0.307253       -2.694256  
H      -2.795080       -0.175918       -3.106629  
H      -2.392443        1.603769       -3.236548  
C       0.254788       -0.042878       -2.086739  
H       1.225936       -0.386786       -2.412358  
Cl      -0.173915        0.136186        2.206049  
Cl       0.032988       -2.222539       -0.029342  
Si      0.000000        0.000000        0.000000
O       1.875060       -0.000000       -0.000000  
O       0.127042        1.935326        0.000000  
C       2.817969        2.049798        0.619379  
C       2.271038        2.663665       -0.601204  
C       0.367843        3.179714       -1.933160  
C       3.066888        0.109858        1.979324  
C       3.874707        0.803808        2.865352  
C       3.631307        2.766862        1.493847  
C       4.162917        2.147586        2.624105  
C       3.072210        3.414061       -1.459448  
C       2.514881        4.053656       -2.564657  
C       1.143652        3.935594       -2.796220  
H       3.821661        3.812340        1.282298  
H       4.789455        2.709846        3.307733  
H       4.133194        3.477679       -1.248968  
H       3.141878        4.634085       -3.232229  
H       0.664677        4.416615       -3.641100  
H      -0.699165        3.036219       -2.031467  
N       2.569844        0.733328        0.886082  
N       0.930979        2.567290       -0.863705  
H       2.795357       -0.932383        2.073428  
H       4.265805        0.283692        3.731801  
